117991320
  -OEChem-07152217153D

 64 68  0     1  0  0  0  0  0999 V2000
   -4.3053   -2.4532    2.9748 Cl  0  0  0  0  0  0  0  0  0  0  0  0
   -6.4822   -2.9483   -2.8482 Cl  0  0  0  0  0  0  0  0  0  0  0  0
    6.6548    1.0088    2.1978 O   0  0  0  0  0  0  0  0  0  0  0  0
   -0.4144   -0.0439    1.3307 O   0  0  0  0  0  0  0  0  0  0  0  0
    8.5177   -1.6895   -1.5714 N   0  0  0  0  0  0  0  0  0  0  0  0
    6.8475   -0.5212    0.4409 N   0  0  0  0  0  0  0  0  0  0  0  0
   -5.3265    0.9611    0.3748 N   0  0  1  0  0  0  0  0  0  0  0  0
   -5.1011    3.0967   -1.4389 N   0  0  0  0  0  0  0  0  0  0  0  0
   -2.7526    3.0183   -1.2675 N   0  0  0  0  0  0  0  0  0  0  0  0
   -1.6009    2.4779   -0.7893 N   0  0  0  0  0  0  0  0  0  0  0  0
    0.7642    1.5311    0.0424 N   0  0  0  0  0  0  0  0  0  0  0  0
    9.0929   -0.8112   -0.5422 C   0  0  0  0  0  0  0  0  0  0  0  0
    7.1464   -1.2713   -1.8957 C   0  0  0  0  0  0  0  0  0  0  0  0
    8.2439   -0.8420    0.7276 C   0  0  0  0  0  0  0  0  0  0  0  0
    6.2534   -1.2971   -0.6533 C   0  0  0  0  0  0  0  0  0  0  0  0
   -6.4815    1.8100    0.0849 C   0  0  0  0  0  0  0  0  0  0  0  0
    9.3525   -1.6885   -2.7721 C   0  0  0  0  0  0  0  0  0  0  0  0
    6.1744    0.4073    1.2384 C   0  0  0  0  0  0  0  0  0  0  0  0
   -6.3617    2.4015   -1.3127 C   0  0  0  0  0  0  0  0  0  0  0  0
   -4.0717    1.4415    0.0003 C   0  0  0  0  0  0  0  0  0  0  0  0
   -5.4743   -0.0940    1.3640 C   0  0  0  0  0  0  0  0  0  0  0  0
   -3.9584    2.5151   -0.9012 C   0  0  0  0  0  0  0  0  0  0  0  0
    4.7689    0.6995    0.9265 C   0  0  0  0  0  0  0  0  0  0  0  0
   -5.4263   -1.4448    0.7052 C   0  0  0  0  0  0  0  0  0  0  0  0
   -2.8753    0.8945    0.4684 C   0  0  0  0  0  0  0  0  0  0  0  0
   -1.6753    1.4373    0.0549 C   0  0  0  0  0  0  0  0  0  0  0  0
    3.7535   -0.0512    1.5192 C   0  0  0  0  0  0  0  0  0  0  0  0
    4.4493    1.7271    0.0391 C   0  0  0  0  0  0  0  0  0  0  0  0
    2.0991    1.2531    0.3366 C   0  0  0  0  0  0  0  0  0  0  0  0
   -4.9131   -2.5626    1.3631 C   0  0  0  0  0  0  0  0  0  0  0  0
   -5.9116   -1.5638   -0.5970 C   0  0  0  0  0  0  0  0  0  0  0  0
    2.4186    0.2256    1.2242 C   0  0  0  0  0  0  0  0  0  0  0  0
    3.1145    2.0039   -0.2560 C   0  0  0  0  0  0  0  0  0  0  0  0
   -0.3799    0.8907    0.5375 C   0  0  0  0  0  0  0  0  0  0  0  0
   -5.8839   -2.8007   -1.2413 C   0  0  0  0  0  0  0  0  0  0  0  0
   -4.8852   -3.7994    0.7188 C   0  0  0  0  0  0  0  0  0  0  0  0
   -5.3706   -3.9184   -0.5834 C   0  0  0  0  0  0  0  0  0  0  0  0
    9.1651    0.2207   -0.9111 H   0  0  0  0  0  0  0  0  0  0  0  0
   10.1068   -1.1433   -0.2890 H   0  0  0  0  0  0  0  0  0  0  0  0
    6.7156   -1.9471   -2.6442 H   0  0  0  0  0  0  0  0  0  0  0  0
    7.1439   -0.2601   -2.3243 H   0  0  0  0  0  0  0  0  0  0  0  0
    8.6563   -0.1463    1.4657 H   0  0  0  0  0  0  0  0  0  0  0  0
    8.2599   -1.8426    1.1769 H   0  0  0  0  0  0  0  0  0  0  0  0
    6.1376   -2.3250   -0.2882 H   0  0  0  0  0  0  0  0  0  0  0  0
    5.2577   -0.9325   -0.9149 H   0  0  0  0  0  0  0  0  0  0  0  0
   -6.5375    2.6096    0.8347 H   0  0  0  0  0  0  0  0  0  0  0  0
   -7.4129    1.2355    0.1515 H   0  0  0  0  0  0  0  0  0  0  0  0
    8.9465   -2.3754   -3.5229 H   0  0  0  0  0  0  0  0  0  0  0  0
   10.3629   -2.0415   -2.5379 H   0  0  0  0  0  0  0  0  0  0  0  0
    9.4308   -0.6923   -3.2224 H   0  0  0  0  0  0  0  0  0  0  0  0
   -6.4180    1.6114   -2.0710 H   0  0  0  0  0  0  0  0  0  0  0  0
   -7.1862    3.0969   -1.5008 H   0  0  0  0  0  0  0  0  0  0  0  0
   -6.4563   -0.0148    1.8505 H   0  0  0  0  0  0  0  0  0  0  0  0
   -4.7514    0.0378    2.1741 H   0  0  0  0  0  0  0  0  0  0  0  0
   -4.9957    3.8522   -2.1042 H   0  0  0  0  0  0  0  0  0  0  0  0
   -2.8700    0.0494    1.1476 H   0  0  0  0  0  0  0  0  0  0  0  0
    3.9930   -0.8541    2.2117 H   0  0  0  0  0  0  0  0  0  0  0  0
    5.2331    2.3174   -0.4285 H   0  0  0  0  0  0  0  0  0  0  0  0
   -6.3392   -0.7200   -1.1292 H   0  0  0  0  0  0  0  0  0  0  0  0
    1.6914   -0.3995    1.7227 H   0  0  0  0  0  0  0  0  0  0  0  0
    2.8800    2.8075   -0.9495 H   0  0  0  0  0  0  0  0  0  0  0  0
    0.6121    2.2974   -0.6102 H   0  0  0  0  0  0  0  0  0  0  0  0
   -4.4885   -4.6800    1.2178 H   0  0  0  0  0  0  0  0  0  0  0  0
   -5.3426   -4.8884   -1.0732 H   0  0  0  0  0  0  0  0  0  0  0  0
  1 30  1  0  0  0  0
  2 35  1  0  0  0  0
  3 18  2  0  0  0  0
  4 34  2  0  0  0  0
  5 12  1  0  0  0  0
  5 13  1  0  0  0  0
  5 17  1  0  0  0  0
  6 14  1  0  0  0  0
  6 15  1  0  0  0  0
  6 18  1  0  0  0  0
  7 16  1  0  0  0  0
  7 20  1  0  0  0  0
  7 21  1  0  0  0  0
  8 19  1  0  0  0  0
  8 22  1  0  0  0  0
  8 55  1  0  0  0  0
  9 10  1  0  0  0  0
  9 22  2  0  0  0  0
 10 26  2  0  0  0  0
 11 29  1  0  0  0  0
 11 34  1  0  0  0  0
 11 62  1  0  0  0  0
 12 14  1  0  0  0  0
 12 38  1  0  0  0  0
 12 39  1  0  0  0  0
 13 15  1  0  0  0  0
 13 40  1  0  0  0  0
 13 41  1  0  0  0  0
 14 42  1  0  0  0  0
 14 43  1  0  0  0  0
 15 44  1  0  0  0  0
 15 45  1  0  0  0  0
 16 19  1  0  0  0  0
 16 46  1  0  0  0  0
 16 47  1  0  0  0  0
 17 48  1  0  0  0  0
 17 49  1  0  0  0  0
 17 50  1  0  0  0  0
 18 23  1  0  0  0  0
 19 51  1  0  0  0  0
 19 52  1  0  0  0  0
 20 22  1  0  0  0  0
 20 25  2  0  0  0  0
 21 24  1  0  0  0  0
 21 53  1  0  0  0  0
 21 54  1  0  0  0  0
 23 27  2  0  0  0  0
 23 28  1  0  0  0  0
 24 30  2  0  0  0  0
 24 31  1  0  0  0  0
 25 26  1  0  0  0  0
 25 56  1  0  0  0  0
 26 34  1  0  0  0  0
 27 32  1  0  0  0  0
 27 57  1  0  0  0  0
 28 33  2  0  0  0  0
 28 58  1  0  0  0  0
 29 32  2  0  0  0  0
 29 33  1  0  0  0  0
 30 36  1  0  0  0  0
 31 35  2  0  0  0  0
 31 59  1  0  0  0  0
 32 60  1  0  0  0  0
 33 61  1  0  0  0  0
 35 37  1  0  0  0  0
 36 37  2  0  0  0  0
 36 63  1  0  0  0  0
 37 64  1  0  0  0  0
M  END
> <PUBCHEM_COMPOUND_CID>
117991320

> <PUBCHEM_CONFORMER_RMSD>
1

> <PUBCHEM_CONFORMER_DIVERSEORDER>
1
116
125
80
90
18
10
81
122
14
49
75
74
9
91
72
50
55
96
65
42
11
63
76
22
111
123
119
113
127
120
99
137
59
16
132
152
38
106
60
32
15
31
135
12
69
34
4
83
30
118
19
144
107
109
134
7
54
39
129
43
98
46
84
136
23
88
112
68
53
102
139
40
149
13
93
79
87
117
95
86
82
105
108
62
5
140
57
94
142
146
97
133
150
28
2
138
131
85
114
35
66
73
51
17
48
67
103
36
126
147
100
110
104
3
26
24
52
121
124
89
44
56
70
143
156
47
128
71
151
130
154
25
37
58
20
33
78
29
8
141
41
77
153
21
101
92
155
64
6
148
27
115
61
145
45

> <PUBCHEM_MMFF94_PARTIAL_CHARGES>
47
1 -0.18
10 -0.31
11 -0.55
12 0.27
13 0.27
14 0.3
15 0.3
16 0.37
17 0.27
18 0.54
19 0.37
2 -0.18
20 0.1
21 0.51
22 0.41
23 0.09
24 -0.14
25 -0.15
26 0.4
27 -0.15
28 -0.15
29 0.12
3 -0.57
30 0.18
31 -0.15
32 -0.15
33 -0.15
34 0.54
35 0.18
36 -0.15
37 -0.15
4 -0.57
5 -0.81
55 0.4
56 0.15
57 0.15
58 0.15
59 0.15
6 -0.66
60 0.15
61 0.15
62 0.37
63 0.15
64 0.15
7 -0.84
8 -0.87
9 -0.31

> <PUBCHEM_EFFECTIVE_ROTOR_COUNT>
9

> <PUBCHEM_PHARMACOPHORE_FEATURES>
13
1 10 acceptor
1 11 donor
1 3 acceptor
1 4 acceptor
1 5 cation
1 7 cation
1 8 donor
3 8 9 22 cation
6 23 27 28 29 32 33 rings
6 24 30 31 35 36 37 rings
6 5 6 12 13 14 15 rings
6 7 8 16 19 20 22 rings
6 9 10 20 22 25 26 rings

> <PUBCHEM_HEAVY_ATOM_COUNT>
37

> <PUBCHEM_ATOM_DEF_STEREO_COUNT>
0

> <PUBCHEM_ATOM_UDEF_STEREO_COUNT>
0

> <PUBCHEM_BOND_DEF_STEREO_COUNT>
0

> <PUBCHEM_BOND_UDEF_STEREO_COUNT>
0

> <PUBCHEM_ISOTOPIC_ATOM_COUNT>
0

> <PUBCHEM_COMPONENT_COUNT>
1

> <PUBCHEM_CACTVS_TAUTO_COUNT>
19

> <PUBCHEM_CONFORMER_ID>
0708679800000001

> <PUBCHEM_MMFF94_ENERGY>
120.7047

> <PUBCHEM_FEATURE_SELFOVERLAP>
66.007

> <PUBCHEM_SHAPE_FINGERPRINT>
10554248 39 15502644967816228666
10677351 14 18411417341241829860
11393246 34 18342454881020549647
11477941 20 16443061686405470893
11505856 67 14347170362069785167
11578821 258 11674889896670783438
11761917 87 16916801639385354854
11828042 291 15575272057897777122
11963148 33 18188482485540278602
12013929 29 12036818290230675215
12120059 9 18341322298830780322
12645989 146 18334295387550236740
13782708 43 18342175621830076704
14344974 204 18200311164032359791
14395042 24 11887388188718363951
150020 25 18272089366758311174
15352257 5 18273498970466562594
15361156 5 17676777491306359073
15419008 91 18339903975501011888
15448158 91 18268712890914052451
15510794 2 18273208695549846416
1577012 14 16877946001796970464
16989713 51 18334855030663254663
16993089 31 17847067679548364902
17324776 126 17554591169901025775
20982279 24 16772971216399885974
21781051 124 17988652908875339334
21867018 265 18335432270394895662
23522609 53 16734404686030013012
23569943 247 16127808540211078606
23576562 1 17894923957475730204
25269216 80 17895206518646454506
335507 130 17967822634489117760
397830 11 18199172061743780400
4017518 198 18341327800672986287
42767 24 18411420647823621102
4625314 4 18410291415312254948
49967989 163 17895198856272058659
504579 68 17458344164935939742
5104073 3 11383840350507508460
58902169 19 16805612443230102126
5937810 71 12901539126932392639
9831232 110 18341052939708417526
999808 66 17847064372175444838

> <PUBCHEM_SHAPE_MULTIPOLES>
718.58
29.59
4.23
2.24
57.67
1.72
0.29
18.11
10.63
-10.28
1.74
0.12
1.65
3.83

> <PUBCHEM_SHAPE_SELFOVERLAP>
1537.406

> <PUBCHEM_SHAPE_VOLUME>
398.5

> <PUBCHEM_COORDINATE_TYPE>
2
5
10

$$$$
