122582638
  -OEChem-07162207203D

 62 66  0     1  0  0  0  0  0999 V2000
   -4.7412   -2.9325    1.9544 Cl  0  0  0  0  0  0  0  0  0  0  0  0
   -6.6269   -0.5796   -3.5046 Cl  0  0  0  0  0  0  0  0  0  0  0  0
   -0.2070   -1.4220    1.0557 O   0  0  0  0  0  0  0  0  0  0  0  0
    6.2656   -0.3432   -0.1573 N   0  0  0  0  0  0  0  0  0  0  0  0
    8.8696    0.7330   -0.6266 N   0  0  0  0  0  0  0  0  0  0  0  0
   -4.5013    1.3284    0.8369 N   0  0  1  0  0  0  0  0  0  0  0  0
   -3.5205    3.7941   -0.0904 N   0  0  0  0  0  0  0  0  0  0  0  0
    1.4560    0.0770    0.3532 N   0  0  0  0  0  0  0  0  0  0  0  0
   -1.3262    2.9361   -0.1059 N   0  0  0  0  0  0  0  0  0  0  0  0
   -0.4285    1.9311    0.0713 N   0  0  0  0  0  0  0  0  0  0  0  0
    6.7198    0.8369    0.5888 C   0  0  0  0  0  0  0  0  0  0  0  0
    7.3262   -1.1975   -0.7001 C   0  0  0  0  0  0  0  0  0  0  0  0
    7.7666    1.6107   -0.2159 C   0  0  0  0  0  0  0  0  0  0  0  0
    8.3546   -0.3582   -1.4626 C   0  0  0  0  0  0  0  0  0  0  0  0
    5.0310   -0.9044    0.1880 C   0  0  0  0  0  0  0  0  0  0  0  0
    9.8896    1.4940   -1.3472 C   0  0  0  0  0  0  0  0  0  0  0  0
   -5.3170    2.5371    0.9468 C   0  0  0  0  0  0  0  0  0  0  0  0
   -3.1400    1.4982    0.5843 C   0  0  0  0  0  0  0  0  0  0  0  0
   -4.9397    3.5273   -0.1461 C   0  0  0  0  0  0  0  0  0  0  0  0
   -5.0257    0.0876    1.3839 C   0  0  0  0  0  0  0  0  0  0  0  0
    3.8678   -0.1396    0.0993 C   0  0  0  0  0  0  0  0  0  0  0  0
    4.9639   -2.2287    0.6208 C   0  0  0  0  0  0  0  0  0  0  0  0
   -2.6476    2.7341    0.1277 C   0  0  0  0  0  0  0  0  0  0  0  0
    2.6374   -0.6992    0.4436 C   0  0  0  0  0  0  0  0  0  0  0  0
   -2.2014    0.4773    0.7469 C   0  0  0  0  0  0  0  0  0  0  0  0
   -5.3618   -0.8751    0.2789 C   0  0  0  0  0  0  0  0  0  0  0  0
    3.7334   -2.7883    0.9650 C   0  0  0  0  0  0  0  0  0  0  0  0
    2.5702   -2.0235    0.8766 C   0  0  0  0  0  0  0  0  0  0  0  0
   -0.8706    0.7331    0.4841 C   0  0  0  0  0  0  0  0  0  0  0  0
    0.1368   -0.2983    0.6500 C   0  0  0  0  0  0  0  0  0  0  0  0
   -5.2595   -2.2552    0.4538 C   0  0  0  0  0  0  0  0  0  0  0  0
   -5.7847   -0.3567   -0.9450 C   0  0  0  0  0  0  0  0  0  0  0  0
   -6.1055   -1.2185   -1.9940 C   0  0  0  0  0  0  0  0  0  0  0  0
   -5.5802   -3.1169   -0.5952 C   0  0  0  0  0  0  0  0  0  0  0  0
   -6.0031   -2.5986   -1.8191 C   0  0  0  0  0  0  0  0  0  0  0  0
    7.1441    0.5146    1.5486 H   0  0  0  0  0  0  0  0  0  0  0  0
    5.8925    1.5192    0.8155 H   0  0  0  0  0  0  0  0  0  0  0  0
    6.9111   -1.9383   -1.3948 H   0  0  0  0  0  0  0  0  0  0  0  0
    7.8251   -1.7374    0.1151 H   0  0  0  0  0  0  0  0  0  0  0  0
    7.2897    2.0708   -1.0919 H   0  0  0  0  0  0  0  0  0  0  0  0
    8.1492    2.4241    0.4125 H   0  0  0  0  0  0  0  0  0  0  0  0
    9.1763   -1.0174   -1.7679 H   0  0  0  0  0  0  0  0  0  0  0  0
    7.8969    0.0387   -2.3790 H   0  0  0  0  0  0  0  0  0  0  0  0
   10.2996    2.2856   -0.7103 H   0  0  0  0  0  0  0  0  0  0  0  0
    9.4964    1.9551   -2.2606 H   0  0  0  0  0  0  0  0  0  0  0  0
   10.7294    0.8461   -1.6221 H   0  0  0  0  0  0  0  0  0  0  0  0
   -6.3829    2.2962    0.8586 H   0  0  0  0  0  0  0  0  0  0  0  0
   -5.1649    2.9850    1.9373 H   0  0  0  0  0  0  0  0  0  0  0  0
   -5.1950    3.1257   -1.1340 H   0  0  0  0  0  0  0  0  0  0  0  0
   -5.4954    4.4619   -0.0177 H   0  0  0  0  0  0  0  0  0  0  0  0
   -5.9608    0.2845    1.9262 H   0  0  0  0  0  0  0  0  0  0  0  0
   -4.3453   -0.3144    2.1400 H   0  0  0  0  0  0  0  0  0  0  0  0
    3.9114    0.8892   -0.2516 H   0  0  0  0  0  0  0  0  0  0  0  0
    5.8503   -2.8492    0.7157 H   0  0  0  0  0  0  0  0  0  0  0  0
   -3.1479    4.6670   -0.4420 H   0  0  0  0  0  0  0  0  0  0  0  0
   -2.4986   -0.5135    1.0720 H   0  0  0  0  0  0  0  0  0  0  0  0
    3.6824   -3.8186    1.3052 H   0  0  0  0  0  0  0  0  0  0  0  0
    1.6569   -2.5262    1.1610 H   0  0  0  0  0  0  0  0  0  0  0  0
    1.5977    1.0328    0.0325 H   0  0  0  0  0  0  0  0  0  0  0  0
   -5.8980    0.7104   -1.1076 H   0  0  0  0  0  0  0  0  0  0  0  0
   -5.5058   -4.1948   -0.4748 H   0  0  0  0  0  0  0  0  0  0  0  0
   -6.2496   -3.2819   -2.6277 H   0  0  0  0  0  0  0  0  0  0  0  0
  1 31  1  0  0  0  0
  2 33  1  0  0  0  0
  3 30  2  0  0  0  0
  4 11  1  0  0  0  0
  4 12  1  0  0  0  0
  4 15  1  0  0  0  0
  5 13  1  0  0  0  0
  5 14  1  0  0  0  0
  5 16  1  0  0  0  0
  6 17  1  0  0  0  0
  6 18  1  0  0  0  0
  6 20  1  0  0  0  0
  7 19  1  0  0  0  0
  7 23  1  0  0  0  0
  7 55  1  0  0  0  0
  8 24  1  0  0  0  0
  8 30  1  0  0  0  0
  8 59  1  0  0  0  0
  9 10  1  0  0  0  0
  9 23  2  0  0  0  0
 10 29  2  0  0  0  0
 11 13  1  0  0  0  0
 11 36  1  0  0  0  0
 11 37  1  0  0  0  0
 12 14  1  0  0  0  0
 12 38  1  0  0  0  0
 12 39  1  0  0  0  0
 13 40  1  0  0  0  0
 13 41  1  0  0  0  0
 14 42  1  0  0  0  0
 14 43  1  0  0  0  0
 15 21  1  0  0  0  0
 15 22  2  0  0  0  0
 16 44  1  0  0  0  0
 16 45  1  0  0  0  0
 16 46  1  0  0  0  0
 17 19  1  0  0  0  0
 17 47  1  0  0  0  0
 17 48  1  0  0  0  0
 18 23  1  0  0  0  0
 18 25  2  0  0  0  0
 19 49  1  0  0  0  0
 19 50  1  0  0  0  0
 20 26  1  0  0  0  0
 20 51  1  0  0  0  0
 20 52  1  0  0  0  0
 21 24  2  0  0  0  0
 21 53  1  0  0  0  0
 22 27  1  0  0  0  0
 22 54  1  0  0  0  0
 24 28  1  0  0  0  0
 25 29  1  0  0  0  0
 25 56  1  0  0  0  0
 26 31  2  0  0  0  0
 26 32  1  0  0  0  0
 27 28  2  0  0  0  0
 27 57  1  0  0  0  0
 28 58  1  0  0  0  0
 29 30  1  0  0  0  0
 31 34  1  0  0  0  0
 32 33  2  0  0  0  0
 32 60  1  0  0  0  0
 33 35  1  0  0  0  0
 34 35  2  0  0  0  0
 34 61  1  0  0  0  0
 35 62  1  0  0  0  0
M  END
> <PUBCHEM_COMPOUND_CID>
122582638

> <PUBCHEM_CONFORMER_RMSD>
1.2

> <PUBCHEM_CONFORMER_DIVERSEORDER>
2
17
64
80
87
92
24
121
108
100
109
115
50
113
1
103
118
122
59
6
12
53
74
117
41
58
98
126
68
54
127
47
40
120
119
11
85
55
48
15
89
43
35
63
97
65
93
124
61
46
82
51
32
16
72
49
81
23
25
67
106
101
44
20
84
31
13
9
112
78
73
19
42
69
99
5
36
88
125
22
90
57
3
114
116
83
102
29
21
104
30
56
111
86
28
60
62
79
105
26
52
10
38
96
33
107
71
110
123
4
91
14
95
94
66
77
7
37
34
70
18
75
76
39
8
45
27

> <PUBCHEM_MMFF94_PARTIAL_CHARGES>
45
1 -0.18
10 -0.31
11 0.37
12 0.37
13 0.27
14 0.27
15 0.1
16 0.27
17 0.37
18 0.1
19 0.37
2 -0.18
20 0.51
21 -0.15
22 -0.15
23 0.41
24 0.12
25 -0.15
26 -0.14
27 -0.15
28 -0.15
29 0.4
3 -0.57
30 0.54
31 0.18
32 -0.15
33 0.18
34 -0.15
35 -0.15
4 -0.84
5 -0.81
53 0.15
54 0.15
55 0.4
56 0.15
57 0.15
58 0.15
59 0.37
6 -0.84
60 0.15
61 0.15
62 0.15
7 -0.87
8 -0.55
9 -0.31

> <PUBCHEM_EFFECTIVE_ROTOR_COUNT>
8

> <PUBCHEM_PHARMACOPHORE_FEATURES>
13
1 10 acceptor
1 3 acceptor
1 4 cation
1 5 cation
1 6 cation
1 7 donor
1 8 donor
3 7 9 23 cation
6 15 21 22 24 27 28 rings
6 26 31 32 33 34 35 rings
6 4 5 11 12 13 14 rings
6 6 7 17 18 19 23 rings
6 9 10 18 23 25 29 rings

> <PUBCHEM_HEAVY_ATOM_COUNT>
35

> <PUBCHEM_ATOM_DEF_STEREO_COUNT>
0

> <PUBCHEM_ATOM_UDEF_STEREO_COUNT>
0

> <PUBCHEM_BOND_DEF_STEREO_COUNT>
0

> <PUBCHEM_BOND_UDEF_STEREO_COUNT>
0

> <PUBCHEM_ISOTOPIC_ATOM_COUNT>
0

> <PUBCHEM_COMPONENT_COUNT>
1

> <PUBCHEM_CACTVS_TAUTO_COUNT>
24

> <PUBCHEM_CONFORMER_ID>
074E766E00000002

> <PUBCHEM_MMFF94_ENERGY>
126.3774

> <PUBCHEM_FEATURE_SELFOVERLAP>
66.01

> <PUBCHEM_SHAPE_FINGERPRINT>
10190206 1 18335699455356392843
10462674 296 17624128704066698422
10595046 47 18335983073858985306
10917259 128 14201935935902699988
11007060 377 18409733975717089490
11297010 23 16316944086743821221
11497681 19 18059288880615682422
11973863 73 13110699194531125678
12082328 90 18341896269020942990
12144603 126 18413111641610595769
12522641 126 18192996143770338796
12821665 9 18407761425907440473
13782708 43 17917705807884634258
14118638 360 18409445869585238114
1454969 45 18410854378392820494
14856354 85 18201154455539187487
15064986 266 18409733924905039939
15250474 111 18189884319573206795
15289351 153 18333729127426828538
15352257 5 16559034887337821014
15361156 5 18271524209022862249
15392192 29 18272090544096886735
15461852 350 18342746221832350220
1577012 14 18334295323678920232
16989713 51 17989198287505967399
16992752 21 18341332275364055847
16993089 31 15482665792760435973
17324776 126 14833271256633603637
17686467 74 18337392746560838264
18608769 82 18410015433888314576
19315958 150 17773329941870375489
21133410 32 16298955406761823243
21585482 57 18261395615862675916
21795232 338 18272658952552302017
21895439 516 17988094270858853518
24771293 8 18114187432710690348
335507 130 18335712640979480872
395649 100 18261114092839568930
4073 2 18187092710867883810
4169191 19 17603875515778329180
437795 83 18408888451106478538
444769 64 11167945757540494926
445580 167 18408887352227593692
4625314 4 18340771417170373390
49967989 163 18335427893212018211
504579 68 18407759226815561535
54039377 194 18270401724148614439
550186 72 18409446959963976013
563151 97 18188487974049306419
6201460 15 16336637997870614199
6431902 208 18408323302657569379
6673363 416 18342186596374390260
68570916 9 18263079934131470474
70634741 139 17821729472551340971

> <PUBCHEM_SHAPE_MULTIPOLES>
683.29
27.81
3.96
1.79
57.99
1.57
-1.48
-1.26
-13.86
-6.58
0.61
-3.68
-0.96
-2.49

> <PUBCHEM_SHAPE_SELFOVERLAP>
1461.021

> <PUBCHEM_SHAPE_VOLUME>
379.4

> <PUBCHEM_COORDINATE_TYPE>
2
5
10

$$$$
