122582642
  -OEChem-07162207213D

 62 66  0     1  0  0  0  0  0999 V2000
   -3.7182   -3.0713    2.4070 Cl  0  0  0  0  0  0  0  0  0  0  0  0
   -6.6805   -2.0573   -2.9864 Cl  0  0  0  0  0  0  0  0  0  0  0  0
    0.0741   -0.4675    0.8304 O   0  0  0  0  0  0  0  0  0  0  0  0
    6.5396   -0.2146   -0.1186 N   0  0  0  0  0  0  0  0  0  0  0  0
    9.2586   -1.0357    0.1847 N   0  0  0  0  0  0  0  0  0  0  0  0
   -4.8416    0.9066    0.8659 N   0  0  1  0  0  0  0  0  0  0  0  0
   -4.7148    3.4111   -0.4043 N   0  0  0  0  0  0  0  0  0  0  0  0
    1.1543    1.3390   -0.2068 N   0  0  0  0  0  0  0  0  0  0  0  0
   -2.3752    3.2134   -0.6006 N   0  0  0  0  0  0  0  0  0  0  0  0
   -1.2095    2.5338   -0.4369 N   0  0  0  0  0  0  0  0  0  0  0  0
    7.4944    0.6476    0.5892 C   0  0  0  0  0  0  0  0  0  0  0  0
    6.8866   -1.6382   -0.1687 C   0  0  0  0  0  0  0  0  0  0  0  0
    8.9194    0.3899    0.0943 C   0  0  0  0  0  0  0  0  0  0  0  0
    8.3320   -1.8226   -0.6382 C   0  0  0  0  0  0  0  0  0  0  0  0
    5.1953    0.1732   -0.1415 C   0  0  0  0  0  0  0  0  0  0  0  0
   10.6399   -1.2621   -0.2392 C   0  0  0  0  0  0  0  0  0  0  0  0
   -5.9642    1.8393    0.9565 C   0  0  0  0  0  0  0  0  0  0  0  0
   -3.6180    1.4208    0.4367 C   0  0  0  0  0  0  0  0  0  0  0  0
   -5.9917    2.7493   -0.2635 C   0  0  0  0  0  0  0  0  0  0  0  0
   -4.9278   -0.3522    1.5881 C   0  0  0  0  0  0  0  0  0  0  0  0
    4.8312    1.3966   -0.7040 C   0  0  0  0  0  0  0  0  0  0  0  0
    4.2191   -0.6636    0.3995 C   0  0  0  0  0  0  0  0  0  0  0  0
   -3.5530    2.6774   -0.1919 C   0  0  0  0  0  0  0  0  0  0  0  0
   -2.4101    0.7359    0.5826 C   0  0  0  0  0  0  0  0  0  0  0  0
   -5.0603   -1.5023    0.6287 C   0  0  0  0  0  0  0  0  0  0  0  0
    2.5151    0.9463   -0.1849 C   0  0  0  0  0  0  0  0  0  0  0  0
    3.4912    1.7832   -0.7258 C   0  0  0  0  0  0  0  0  0  0  0  0
    2.8791   -0.2772    0.3778 C   0  0  0  0  0  0  0  0  0  0  0  0
   -1.2417    1.3219    0.1387 C   0  0  0  0  0  0  0  0  0  0  0  0
    0.0352    0.6469    0.2806 C   0  0  0  0  0  0  0  0  0  0  0  0
   -4.5415   -2.7636    0.9215 C   0  0  0  0  0  0  0  0  0  0  0  0
   -5.7219   -1.2837   -0.5796 C   0  0  0  0  0  0  0  0  0  0  0  0
   -5.8648   -2.3264   -1.4951 C   0  0  0  0  0  0  0  0  0  0  0  0
   -4.6842   -3.8063    0.0059 C   0  0  0  0  0  0  0  0  0  0  0  0
   -5.3459   -3.5876   -1.2023 C   0  0  0  0  0  0  0  0  0  0  0  0
    7.4275    0.4499    1.6670 H   0  0  0  0  0  0  0  0  0  0  0  0
    7.2702    1.7103    0.4420 H   0  0  0  0  0  0  0  0  0  0  0  0
    6.2321   -2.1733   -0.8681 H   0  0  0  0  0  0  0  0  0  0  0  0
    6.7634   -2.0882    0.8248 H   0  0  0  0  0  0  0  0  0  0  0  0
    9.0194    0.7481   -0.9393 H   0  0  0  0  0  0  0  0  0  0  0  0
    9.6083    0.9788    0.7121 H   0  0  0  0  0  0  0  0  0  0  0  0
    8.5812   -2.8885   -0.5696 H   0  0  0  0  0  0  0  0  0  0  0  0
    8.4135   -1.5356   -1.6954 H   0  0  0  0  0  0  0  0  0  0  0  0
   11.3337   -0.7030    0.3984 H   0  0  0  0  0  0  0  0  0  0  0  0
   10.8099   -0.9626   -1.2797 H   0  0  0  0  0  0  0  0  0  0  0  0
   10.9043   -2.3205   -0.1375 H   0  0  0  0  0  0  0  0  0  0  0  0
   -6.9154    1.2980    1.0204 H   0  0  0  0  0  0  0  0  0  0  0  0
   -5.8652    2.4335    1.8741 H   0  0  0  0  0  0  0  0  0  0  0  0
   -6.2024    2.1704   -1.1707 H   0  0  0  0  0  0  0  0  0  0  0  0
   -6.7846    3.4972   -0.1595 H   0  0  0  0  0  0  0  0  0  0  0  0
   -5.8286   -0.3606    2.2173 H   0  0  0  0  0  0  0  0  0  0  0  0
   -4.0962   -0.4465    2.2922 H   0  0  0  0  0  0  0  0  0  0  0  0
    5.5750    2.0564   -1.1433 H   0  0  0  0  0  0  0  0  0  0  0  0
    4.4689   -1.6160    0.8585 H   0  0  0  0  0  0  0  0  0  0  0  0
   -4.6477    4.3019   -0.8800 H   0  0  0  0  0  0  0  0  0  0  0  0
   -2.3729   -0.2490    1.0344 H   0  0  0  0  0  0  0  0  0  0  0  0
    3.2207    2.7376   -1.1700 H   0  0  0  0  0  0  0  0  0  0  0  0
    2.1826   -0.9761    0.8185 H   0  0  0  0  0  0  0  0  0  0  0  0
    0.9802    2.2474   -0.6323 H   0  0  0  0  0  0  0  0  0  0  0  0
   -6.1580   -0.3216   -0.8289 H   0  0  0  0  0  0  0  0  0  0  0  0
   -4.2856   -4.7949    0.2192 H   0  0  0  0  0  0  0  0  0  0  0  0
   -5.4496   -4.4093   -1.9063 H   0  0  0  0  0  0  0  0  0  0  0  0
  1 31  1  0  0  0  0
  2 33  1  0  0  0  0
  3 30  2  0  0  0  0
  4 11  1  0  0  0  0
  4 12  1  0  0  0  0
  4 15  1  0  0  0  0
  5 13  1  0  0  0  0
  5 14  1  0  0  0  0
  5 16  1  0  0  0  0
  6 17  1  0  0  0  0
  6 18  1  0  0  0  0
  6 20  1  0  0  0  0
  7 19  1  0  0  0  0
  7 23  1  0  0  0  0
  7 55  1  0  0  0  0
  8 26  1  0  0  0  0
  8 30  1  0  0  0  0
  8 59  1  0  0  0  0
  9 10  1  0  0  0  0
  9 23  2  0  0  0  0
 10 29  2  0  0  0  0
 11 13  1  0  0  0  0
 11 36  1  0  0  0  0
 11 37  1  0  0  0  0
 12 14  1  0  0  0  0
 12 38  1  0  0  0  0
 12 39  1  0  0  0  0
 13 40  1  0  0  0  0
 13 41  1  0  0  0  0
 14 42  1  0  0  0  0
 14 43  1  0  0  0  0
 15 21  2  0  0  0  0
 15 22  1  0  0  0  0
 16 44  1  0  0  0  0
 16 45  1  0  0  0  0
 16 46  1  0  0  0  0
 17 19  1  0  0  0  0
 17 47  1  0  0  0  0
 17 48  1  0  0  0  0
 18 23  1  0  0  0  0
 18 24  2  0  0  0  0
 19 49  1  0  0  0  0
 19 50  1  0  0  0  0
 20 25  1  0  0  0  0
 20 51  1  0  0  0  0
 20 52  1  0  0  0  0
 21 27  1  0  0  0  0
 21 53  1  0  0  0  0
 22 28  2  0  0  0  0
 22 54  1  0  0  0  0
 24 29  1  0  0  0  0
 24 56  1  0  0  0  0
 25 31  2  0  0  0  0
 25 32  1  0  0  0  0
 26 27  2  0  0  0  0
 26 28  1  0  0  0  0
 27 57  1  0  0  0  0
 28 58  1  0  0  0  0
 29 30  1  0  0  0  0
 31 34  1  0  0  0  0
 32 33  2  0  0  0  0
 32 60  1  0  0  0  0
 33 35  1  0  0  0  0
 34 35  2  0  0  0  0
 34 61  1  0  0  0  0
 35 62  1  0  0  0  0
M  END
> <PUBCHEM_COMPOUND_CID>
122582642

> <PUBCHEM_CONFORMER_RMSD>
1

> <PUBCHEM_CONFORMER_DIVERSEORDER>
1
47
60
46
19
84
18
67
30
57
11
74
79
63
78
9
56
6
51
4
58
82
71
53
15
37
76
12
25
2
28
31
70
59
23
68
88
3
16
7
45
80
83
55
13
29
34
69
81
17
5
50
26
36
20
38
43
14
41
48
35
61
72
52
40
22
44
21
66
62
49
54
77
32
42
10
65
24
75
73
33
39
86
85
64
87
8
27

> <PUBCHEM_MMFF94_PARTIAL_CHARGES>
45
1 -0.18
10 -0.31
11 0.37
12 0.37
13 0.27
14 0.27
15 0.1
16 0.27
17 0.37
18 0.1
19 0.37
2 -0.18
20 0.51
21 -0.15
22 -0.15
23 0.41
24 -0.15
25 -0.14
26 0.12
27 -0.15
28 -0.15
29 0.4
3 -0.57
30 0.54
31 0.18
32 -0.15
33 0.18
34 -0.15
35 -0.15
4 -0.84
5 -0.81
53 0.15
54 0.15
55 0.4
56 0.15
57 0.15
58 0.15
59 0.37
6 -0.84
60 0.15
61 0.15
62 0.15
7 -0.87
8 -0.55
9 -0.31

> <PUBCHEM_EFFECTIVE_ROTOR_COUNT>
8

> <PUBCHEM_PHARMACOPHORE_FEATURES>
13
1 10 acceptor
1 3 acceptor
1 4 cation
1 5 cation
1 6 cation
1 7 donor
1 8 donor
3 7 9 23 cation
6 15 21 22 26 27 28 rings
6 25 31 32 33 34 35 rings
6 4 5 11 12 13 14 rings
6 6 7 17 18 19 23 rings
6 9 10 18 23 24 29 rings

> <PUBCHEM_HEAVY_ATOM_COUNT>
35

> <PUBCHEM_ATOM_DEF_STEREO_COUNT>
0

> <PUBCHEM_ATOM_UDEF_STEREO_COUNT>
0

> <PUBCHEM_BOND_DEF_STEREO_COUNT>
0

> <PUBCHEM_BOND_UDEF_STEREO_COUNT>
0

> <PUBCHEM_ISOTOPIC_ATOM_COUNT>
0

> <PUBCHEM_COMPONENT_COUNT>
1

> <PUBCHEM_CACTVS_TAUTO_COUNT>
14

> <PUBCHEM_CONFORMER_ID>
074E767200000001

> <PUBCHEM_MMFF94_ENERGY>
126.3813

> <PUBCHEM_FEATURE_SELFOVERLAP>
66.01

> <PUBCHEM_SHAPE_FINGERPRINT>
10168742 298 18129399116716477134
10677351 14 18413109477010440820
11135926 11 17748827401790460003
11477941 20 16515683321165558573
12013929 27 17533222101095238679
12124843 1 17970050353060368391
12645989 146 18334862727440185172
13782708 43 18202004373489085144
14279260 333 18259702298355839347
14344974 204 18200878490715659526
15082195 135 17460605963771795916
15183329 4 17603298276500668002
15250474 111 18187916275242144251
15461852 350 18411986862885175428
1577012 14 17895471432724644264
16989713 51 18343298201584950487
17324776 126 17483940941966793103
18608769 82 18411982447368735704
19311894 1 18048318040037600635
19611394 137 18272934929639103384
21133665 82 18335703776953062681
24204213 200 14692294985630038228
25025965 108 18201706379810906487
335507 130 18260840293037494202
395649 100 18335417976052702630
397830 11 18059564850067176192
4073 2 18260555511178663018
4169191 19 9727359000273646128
42767 24 18343026618066109174
4339292 15 17846769741629563111
437795 160 18410283728200958322
44280117 145 18342176703998239661
44389302 135 18265607690775764306
44802255 64 17168416062191999053
4625314 4 18410856547425456916
4918590 53 17489583489299349152
49967989 163 18041005084831526834
504579 68 17967526887135706571
57676310 115 18266167346546954125
59521270 166 18188487970466554133
6691757 9 14908174266231070628
68570916 9 18335990856472120548
99344 41 18410857625483295170
9953998 17 18272093781684277849

> <PUBCHEM_SHAPE_MULTIPOLES>
683.29
29.38
4.24
1.48
76
0.66
0.33
15.5
4.49
-10.28
0.55
-3.83
1.36
-1.04

> <PUBCHEM_SHAPE_SELFOVERLAP>
1461.085

> <PUBCHEM_SHAPE_VOLUME>
379.7

> <PUBCHEM_COORDINATE_TYPE>
2
5
10

$$$$
