122582663
  -OEChem-07172213593D

 65 69  0     1  0  0  0  0  0999 V2000
   -3.9877   -3.0427    2.4144 Cl  0  0  0  0  0  0  0  0  0  0  0  0
   -7.0127   -1.9305   -2.9245 Cl  0  0  0  0  0  0  0  0  0  0  0  0
   -0.1555   -0.5329    0.7827 O   0  0  0  0  0  0  0  0  0  0  0  0
    6.2971   -0.4441   -0.2724 N   0  0  2  0  0  0  0  0  0  0  0  0
    9.0031   -1.3244   -0.4122 N   0  0  0  0  0  0  0  0  0  0  0  0
   -5.0322    0.9692    0.9065 N   0  0  1  0  0  0  0  0  0  0  0  0
   -4.8612    3.4745   -0.3568 N   0  0  0  0  0  0  0  0  0  0  0  0
    0.9746    1.2423   -0.2663 N   0  0  0  0  0  0  0  0  0  0  0  0
   -2.5312    3.2164   -0.5934 N   0  0  0  0  0  0  0  0  0  0  0  0
   -1.3811    2.5061   -0.4519 N   0  0  0  0  0  0  0  0  0  0  0  0
    8.6850   -0.0870    0.3192 C   0  0  0  0  0  0  0  0  0  0  0  0
    7.3790    0.5462   -0.2143 C   0  0  0  0  0  0  0  0  0  0  0  0
    6.6216   -1.6908   -0.9732 C   0  0  0  0  0  0  0  0  0  0  0  0
    7.9085   -2.2907   -0.4149 C   0  0  0  0  0  0  0  0  0  0  0  0
    9.8481    0.8901    0.0693 C   0  0  0  0  0  0  0  0  0  0  0  0
    8.5888   -0.3412    1.8369 C   0  0  0  0  0  0  0  0  0  0  0  0
    4.9639   -0.0217   -0.2717 C   0  0  0  0  0  0  0  0  0  0  0  0
    4.6226    1.2129   -0.8241 C   0  0  0  0  0  0  0  0  0  0  0  0
    3.9753   -0.8349    0.2825 C   0  0  0  0  0  0  0  0  0  0  0  0
   -6.1282    1.9306    1.0194 C   0  0  0  0  0  0  0  0  0  0  0  0
    3.2929    1.6341   -0.8225 C   0  0  0  0  0  0  0  0  0  0  0  0
    2.6456   -0.4138    0.2843 C   0  0  0  0  0  0  0  0  0  0  0  0
    2.3044    0.8207   -0.2682 C   0  0  0  0  0  0  0  0  0  0  0  0
   -3.8030    1.4529    0.4585 C   0  0  0  0  0  0  0  0  0  0  0  0
   -6.1525    2.8458   -0.1968 C   0  0  0  0  0  0  0  0  0  0  0  0
   -5.1392   -0.2897    1.6256 C   0  0  0  0  0  0  0  0  0  0  0  0
   -3.7156    2.7098   -0.1667 C   0  0  0  0  0  0  0  0  0  0  0  0
   -2.6110    0.7361    0.5815 C   0  0  0  0  0  0  0  0  0  0  0  0
   -5.3179   -1.4322    0.6647 C   0  0  0  0  0  0  0  0  0  0  0  0
   -1.4353    1.2931    0.1200 C   0  0  0  0  0  0  0  0  0  0  0  0
   -0.1438    0.5671    0.2408 C   0  0  0  0  0  0  0  0  0  0  0  0
   -4.8275   -2.7078    0.9442 C   0  0  0  0  0  0  0  0  0  0  0  0
   -5.9938   -1.1916   -0.5316 C   0  0  0  0  0  0  0  0  0  0  0  0
   -6.1794   -2.2266   -1.4481 C   0  0  0  0  0  0  0  0  0  0  0  0
   -5.0129   -3.7427    0.0275 C   0  0  0  0  0  0  0  0  0  0  0  0
   -5.6887   -3.5021   -1.1685 C   0  0  0  0  0  0  0  0  0  0  0  0
    7.1008    1.3851    0.4375 H   0  0  0  0  0  0  0  0  0  0  0  0
    7.5437    0.9511   -1.2221 H   0  0  0  0  0  0  0  0  0  0  0  0
    9.8373   -1.7577   -0.0166 H   0  0  0  0  0  0  0  0  0  0  0  0
    6.7345   -1.4824   -2.0450 H   0  0  0  0  0  0  0  0  0  0  0  0
    5.8253   -2.4374   -0.8741 H   0  0  0  0  0  0  0  0  0  0  0  0
    7.7385   -2.6810    0.5951 H   0  0  0  0  0  0  0  0  0  0  0  0
    8.1979   -3.1477   -1.0333 H   0  0  0  0  0  0  0  0  0  0  0  0
   10.7963    0.4920    0.4500 H   0  0  0  0  0  0  0  0  0  0  0  0
    9.9787    1.0932   -1.0003 H   0  0  0  0  0  0  0  0  0  0  0  0
    9.6690    1.8502    0.5671 H   0  0  0  0  0  0  0  0  0  0  0  0
    8.4636    0.6017    2.3820 H   0  0  0  0  0  0  0  0  0  0  0  0
    7.7390   -0.9793    2.1003 H   0  0  0  0  0  0  0  0  0  0  0  0
    9.4979   -0.8210    2.2178 H   0  0  0  0  0  0  0  0  0  0  0  0
    5.3638    1.8651   -1.2771 H   0  0  0  0  0  0  0  0  0  0  0  0
    4.2246   -1.7936    0.7306 H   0  0  0  0  0  0  0  0  0  0  0  0
   -5.9982    2.5183    1.9373 H   0  0  0  0  0  0  0  0  0  0  0  0
   -7.0921    1.4140    1.0975 H   0  0  0  0  0  0  0  0  0  0  0  0
    3.0404    2.5970   -1.2592 H   0  0  0  0  0  0  0  0  0  0  0  0
    1.9402   -1.0976    0.7346 H   0  0  0  0  0  0  0  0  0  0  0  0
   -6.3935    2.2762   -1.1023 H   0  0  0  0  0  0  0  0  0  0  0  0
   -6.9236    3.6138   -0.0767 H   0  0  0  0  0  0  0  0  0  0  0  0
   -6.0291   -0.2770    2.2700 H   0  0  0  0  0  0  0  0  0  0  0  0
   -4.2985   -0.4085    2.3151 H   0  0  0  0  0  0  0  0  0  0  0  0
   -4.7787    4.3651   -0.8305 H   0  0  0  0  0  0  0  0  0  0  0  0
   -2.5911   -0.2512    1.0290 H   0  0  0  0  0  0  0  0  0  0  0  0
    0.8063    2.1554   -0.6836 H   0  0  0  0  0  0  0  0  0  0  0  0
   -6.4086   -0.2175   -0.7701 H   0  0  0  0  0  0  0  0  0  0  0  0
   -4.6368   -4.7423    0.2305 H   0  0  0  0  0  0  0  0  0  0  0  0
   -5.8258   -4.3180   -1.8736 H   0  0  0  0  0  0  0  0  0  0  0  0
  1 32  1  0  0  0  0
  2 34  1  0  0  0  0
  3 31  2  0  0  0  0
  4 12  1  0  0  0  0
  4 13  1  0  0  0  0
  4 17  1  0  0  0  0
  5 11  1  0  0  0  0
  5 14  1  0  0  0  0
  5 39  1  0  0  0  0
  6 20  1  0  0  0  0
  6 24  1  0  0  0  0
  6 26  1  0  0  0  0
  7 25  1  0  0  0  0
  7 27  1  0  0  0  0
  7 60  1  0  0  0  0
  8 23  1  0  0  0  0
  8 31  1  0  0  0  0
  8 62  1  0  0  0  0
  9 10  1  0  0  0  0
  9 27  2  0  0  0  0
 10 30  2  0  0  0  0
 11 12  1  0  0  0  0
 11 15  1  0  0  0  0
 11 16  1  0  0  0  0
 12 37  1  0  0  0  0
 12 38  1  0  0  0  0
 13 14  1  0  0  0  0
 13 40  1  0  0  0  0
 13 41  1  0  0  0  0
 14 42  1  0  0  0  0
 14 43  1  0  0  0  0
 15 44  1  0  0  0  0
 15 45  1  0  0  0  0
 15 46  1  0  0  0  0
 16 47  1  0  0  0  0
 16 48  1  0  0  0  0
 16 49  1  0  0  0  0
 17 18  2  0  0  0  0
 17 19  1  0  0  0  0
 18 21  1  0  0  0  0
 18 50  1  0  0  0  0
 19 22  2  0  0  0  0
 19 51  1  0  0  0  0
 20 25  1  0  0  0  0
 20 52  1  0  0  0  0
 20 53  1  0  0  0  0
 21 23  2  0  0  0  0
 21 54  1  0  0  0  0
 22 23  1  0  0  0  0
 22 55  1  0  0  0  0
 24 27  1  0  0  0  0
 24 28  2  0  0  0  0
 25 56  1  0  0  0  0
 25 57  1  0  0  0  0
 26 29  1  0  0  0  0
 26 58  1  0  0  0  0
 26 59  1  0  0  0  0
 28 30  1  0  0  0  0
 28 61  1  0  0  0  0
 29 32  2  0  0  0  0
 29 33  1  0  0  0  0
 30 31  1  0  0  0  0
 32 35  1  0  0  0  0
 33 34  2  0  0  0  0
 33 63  1  0  0  0  0
 34 36  1  0  0  0  0
 35 36  2  0  0  0  0
 35 64  1  0  0  0  0
 36 65  1  0  0  0  0
M  END
> <PUBCHEM_COMPOUND_CID>
122582663

> <PUBCHEM_CONFORMER_RMSD>
1

> <PUBCHEM_CONFORMER_DIVERSEORDER>
1
79
8
95
100
99
96
82
55
85
71
9
11
86
69
93
108
18
10
66
80
90
101
64
26
107
50
2
60
48
84
70
88
36
91
33
106
77
12
17
31
7
32
83
47
14
23
78
65
74
53
3
56
94
76
54
39
15
28
62
75
29
98
87
57
92
35
16
38
49
4
63
40
6
97
37
20
19
34
72
30
67
51
42
105
21
58
61
89
104
73
13
45
68
59
52
81
27
5
43
102
46
22
25
41
103
24
44

> <PUBCHEM_MMFF94_PARTIAL_CHARGES>
45
1 -0.18
10 -0.31
11 0.27
12 0.37
13 0.37
14 0.27
17 0.1
18 -0.15
19 -0.15
2 -0.18
20 0.37
21 -0.15
22 -0.15
23 0.12
24 0.1
25 0.37
26 0.51
27 0.41
28 -0.15
29 -0.14
3 -0.57
30 0.4
31 0.54
32 0.18
33 -0.15
34 0.18
35 -0.15
36 -0.15
39 0.36
4 -0.84
5 -0.9
50 0.15
51 0.15
54 0.15
55 0.15
6 -0.84
60 0.4
61 0.15
62 0.37
63 0.15
64 0.15
65 0.15
7 -0.87
8 -0.55
9 -0.31

> <PUBCHEM_EFFECTIVE_ROTOR_COUNT>
8

> <PUBCHEM_PHARMACOPHORE_FEATURES>
15
1 10 acceptor
1 3 acceptor
1 4 cation
1 5 cation
1 5 donor
1 6 cation
1 7 donor
1 8 donor
3 11 15 16 hydrophobe
3 7 9 27 cation
6 17 18 19 21 22 23 rings
6 29 32 33 34 35 36 rings
6 4 5 11 12 13 14 rings
6 6 7 20 24 25 27 rings
6 9 10 24 27 28 30 rings

> <PUBCHEM_HEAVY_ATOM_COUNT>
36

> <PUBCHEM_ATOM_DEF_STEREO_COUNT>
0

> <PUBCHEM_ATOM_UDEF_STEREO_COUNT>
0

> <PUBCHEM_BOND_DEF_STEREO_COUNT>
0

> <PUBCHEM_BOND_UDEF_STEREO_COUNT>
0

> <PUBCHEM_ISOTOPIC_ATOM_COUNT>
0

> <PUBCHEM_COMPONENT_COUNT>
1

> <PUBCHEM_CACTVS_TAUTO_COUNT>
14

> <PUBCHEM_CONFORMER_ID>
074E768700000001

> <PUBCHEM_MMFF94_ENERGY>
125.438

> <PUBCHEM_FEATURE_SELFOVERLAP>
76.16

> <PUBCHEM_SHAPE_FINGERPRINT>
10055352 69 18200032980166031976
10190206 1 18259700116644081131
10391435 84 18411696565481370168
11135926 11 17675925382906783139
12082328 90 18413668006967449110
12124843 1 17970332927670019663
1361 4 18341050718936525462
13782708 43 18201725088824363074
13811026 1 18413105087242439304
14279260 333 18187362138535558627
15183329 4 17676201399090771570
15250474 111 18187917366290463939
15461852 350 18412831296310380948
1577012 14 18040993999852459074
16989713 51 18201153351468406455
17324776 126 17556279998291689191
1754908 1 17704351074806050674
17686467 74 18335420227159326496
18608769 82 18411983546743226392
19311894 1 18048320234866122163
19611394 137 18273216395909776368
21095123 145 16916787431179579332
21130935 74 18270684161234474394
25025965 108 18201706375742747087
335507 130 18334023799566590192
395649 100 18334573559717773439
397830 11 18059565940962424104
4073 2 18338240371172793306
4169191 19 9655304700148787920
42767 24 18342745143031350255
4339292 15 17774712156476890895
437795 160 18410283736669658048
4403749 210 18201995525592867534
44280117 145 18343021120697191757
44389302 135 18190451677233952730
4616759 239 17774726368276052713
4625314 4 18410856538735230572
4874694 18 18340201886852353063
4918590 53 17489866059323863208
504579 68 17894907442751021659
57676310 115 18266168446116649637
6691757 9 15051727599385536388
68570916 9 18335429001687835068
99344 41 18410014304254204738
9953998 17 18273220781250402321

> <PUBCHEM_SHAPE_MULTIPOLES>
703.87
30.45
4.11
1.57
65.76
0.39
0.1
12.24
2.29
-10.44
0.45
-2.91
1.29
-0.96

> <PUBCHEM_SHAPE_SELFOVERLAP>
1504.593

> <PUBCHEM_SHAPE_VOLUME>
391.1

> <PUBCHEM_COORDINATE_TYPE>
2
5
10

$$$$
