122582660
  -OEChem-07172214003D

 68 72  0     1  0  0  0  0  0999 V2000
   -4.2310    3.1557   -2.3555 Cl  0  0  0  0  0  0  0  0  0  0  0  0
   -7.2569    2.0944    2.9934 Cl  0  0  0  0  0  0  0  0  0  0  0  0
   -0.5116    0.4315   -0.8090 O   0  0  0  0  0  0  0  0  0  0  0  0
    8.7008    0.6948    0.4265 N   0  0  0  0  0  0  0  0  0  0  0  0
    5.9389    0.0088    0.1804 N   0  0  0  0  0  0  0  0  0  0  0  0
   -5.4571   -0.8275   -0.9093 N   0  0  1  0  0  0  0  0  0  0  0  0
   -5.3976   -3.3610    0.3069 N   0  0  0  0  0  0  0  0  0  0  0  0
    0.5189   -1.4214    0.1965 N   0  0  0  0  0  0  0  0  0  0  0  0
   -3.0556   -3.2218    0.5242 N   0  0  0  0  0  0  0  0  0  0  0  0
   -1.8735   -2.5660    0.3836 N   0  0  0  0  0  0  0  0  0  0  0  0
    7.6762    1.7455    0.3808 C   0  0  0  0  0  0  0  0  0  0  0  0
    8.2885   -0.4411   -0.4068 C   0  0  0  0  0  0  0  0  0  0  0  0
    6.3338    1.2260    0.9005 C   0  0  0  0  0  0  0  0  0  0  0  0
    6.9657   -1.0335    0.0857 C   0  0  0  0  0  0  0  0  0  0  0  0
    9.9914    1.2175   -0.0207 C   0  0  0  0  0  0  0  0  0  0  0  0
    4.5859   -0.3483    0.1853 C   0  0  0  0  0  0  0  0  0  0  0  0
   11.1116    0.3339    0.5192 C   0  0  0  0  0  0  0  0  0  0  0  0
   10.0347    1.2873   -1.5446 C   0  0  0  0  0  0  0  0  0  0  0  0
    4.1896   -1.5748    0.7185 C   0  0  0  0  0  0  0  0  0  0  0  0
    3.6334    0.5223   -0.3443 C   0  0  0  0  0  0  0  0  0  0  0  0
   -6.6002   -1.7319   -1.0282 C   0  0  0  0  0  0  0  0  0  0  0  0
   -4.2490   -1.3790   -0.4827 C   0  0  0  0  0  0  0  0  0  0  0  0
   -6.6579   -2.6671    0.1715 C   0  0  0  0  0  0  0  0  0  0  0  0
    2.8410   -1.9306    0.7223 C   0  0  0  0  0  0  0  0  0  0  0  0
    2.2847    0.1666   -0.3406 C   0  0  0  0  0  0  0  0  0  0  0  0
   -5.5089    0.4482   -1.6045 C   0  0  0  0  0  0  0  0  0  0  0  0
    1.8885   -1.0598    0.1928 C   0  0  0  0  0  0  0  0  0  0  0  0
   -4.2176   -2.6500    0.1189 C   0  0  0  0  0  0  0  0  0  0  0  0
   -3.0246   -0.7192   -0.6050 C   0  0  0  0  0  0  0  0  0  0  0  0
   -5.6224    1.5802   -0.6214 C   0  0  0  0  0  0  0  0  0  0  0  0
   -1.8734   -1.3416   -0.1657 C   0  0  0  0  0  0  0  0  0  0  0  0
   -0.5803   -0.6933   -0.2838 C   0  0  0  0  0  0  0  0  0  0  0  0
   -5.0724    2.8351   -0.8830 C   0  0  0  0  0  0  0  0  0  0  0  0
   -6.2979    1.3509    0.5772 C   0  0  0  0  0  0  0  0  0  0  0  0
   -6.4238    2.3766    1.5141 C   0  0  0  0  0  0  0  0  0  0  0  0
   -5.1981    3.8608    0.0540 C   0  0  0  0  0  0  0  0  0  0  0  0
   -5.8738    3.6315    1.2525 C   0  0  0  0  0  0  0  0  0  0  0  0
    7.5309    2.1333   -0.6346 H   0  0  0  0  0  0  0  0  0  0  0  0
    7.9763    2.5909    1.0120 H   0  0  0  0  0  0  0  0  0  0  0  0
    8.1148   -0.1605   -1.4530 H   0  0  0  0  0  0  0  0  0  0  0  0
    9.0325   -1.2448   -0.3901 H   0  0  0  0  0  0  0  0  0  0  0  0
    6.4054    1.0023    1.9729 H   0  0  0  0  0  0  0  0  0  0  0  0
    5.5919    2.0249    0.7874 H   0  0  0  0  0  0  0  0  0  0  0  0
    6.6592   -1.8173   -0.6186 H   0  0  0  0  0  0  0  0  0  0  0  0
    7.1161   -1.5000    1.0678 H   0  0  0  0  0  0  0  0  0  0  0  0
   10.1526    2.2220    0.3916 H   0  0  0  0  0  0  0  0  0  0  0  0
   11.1019   -0.6759    0.0970 H   0  0  0  0  0  0  0  0  0  0  0  0
   11.0524    0.2469    1.6100 H   0  0  0  0  0  0  0  0  0  0  0  0
   12.0864    0.7737    0.2796 H   0  0  0  0  0  0  0  0  0  0  0  0
   10.1314    0.3082   -2.0271 H   0  0  0  0  0  0  0  0  0  0  0  0
    9.1916    1.8278   -1.9849 H   0  0  0  0  0  0  0  0  0  0  0  0
   10.9320    1.8452   -1.8427 H   0  0  0  0  0  0  0  0  0  0  0  0
    4.9021   -2.2711    1.1516 H   0  0  0  0  0  0  0  0  0  0  0  0
    3.9250    1.4759   -0.7772 H   0  0  0  0  0  0  0  0  0  0  0  0
   -6.5078   -2.3082   -1.9578 H   0  0  0  0  0  0  0  0  0  0  0  0
   -7.5382   -1.1674   -1.0870 H   0  0  0  0  0  0  0  0  0  0  0  0
   -7.4669   -3.3940    0.0456 H   0  0  0  0  0  0  0  0  0  0  0  0
   -6.8621   -2.1031    1.0895 H   0  0  0  0  0  0  0  0  0  0  0  0
    2.5448   -2.8879    1.1436 H   0  0  0  0  0  0  0  0  0  0  0  0
    1.6081    0.8910   -0.7709 H   0  0  0  0  0  0  0  0  0  0  0  0
   -6.4045    0.4910   -2.2398 H   0  0  0  0  0  0  0  0  0  0  0  0
   -4.6700    0.5385   -2.3005 H   0  0  0  0  0  0  0  0  0  0  0  0
   -5.3546   -4.2632    0.7637 H   0  0  0  0  0  0  0  0  0  0  0  0
   -2.9613    0.2741   -1.0350 H   0  0  0  0  0  0  0  0  0  0  0  0
    0.3207   -2.3345    0.6009 H   0  0  0  0  0  0  0  0  0  0  0  0
   -6.7578    0.3940    0.8024 H   0  0  0  0  0  0  0  0  0  0  0  0
   -4.7753    4.8443   -0.1348 H   0  0  0  0  0  0  0  0  0  0  0  0
   -5.9640    4.4400    1.9735 H   0  0  0  0  0  0  0  0  0  0  0  0
  1 33  1  0  0  0  0
  2 35  1  0  0  0  0
  3 32  2  0  0  0  0
  4 11  1  0  0  0  0
  4 12  1  0  0  0  0
  4 15  1  0  0  0  0
  5 13  1  0  0  0  0
  5 14  1  0  0  0  0
  5 16  1  0  0  0  0
  6 21  1  0  0  0  0
  6 22  1  0  0  0  0
  6 26  1  0  0  0  0
  7 23  1  0  0  0  0
  7 28  1  0  0  0  0
  7 63  1  0  0  0  0
  8 27  1  0  0  0  0
  8 32  1  0  0  0  0
  8 65  1  0  0  0  0
  9 10  1  0  0  0  0
  9 28  2  0  0  0  0
 10 31  2  0  0  0  0
 11 13  1  0  0  0  0
 11 38  1  0  0  0  0
 11 39  1  0  0  0  0
 12 14  1  0  0  0  0
 12 40  1  0  0  0  0
 12 41  1  0  0  0  0
 13 42  1  0  0  0  0
 13 43  1  0  0  0  0
 14 44  1  0  0  0  0
 14 45  1  0  0  0  0
 15 17  1  0  0  0  0
 15 18  1  0  0  0  0
 15 46  1  0  0  0  0
 16 19  2  0  0  0  0
 16 20  1  0  0  0  0
 17 47  1  0  0  0  0
 17 48  1  0  0  0  0
 17 49  1  0  0  0  0
 18 50  1  0  0  0  0
 18 51  1  0  0  0  0
 18 52  1  0  0  0  0
 19 24  1  0  0  0  0
 19 53  1  0  0  0  0
 20 25  2  0  0  0  0
 20 54  1  0  0  0  0
 21 23  1  0  0  0  0
 21 55  1  0  0  0  0
 21 56  1  0  0  0  0
 22 28  1  0  0  0  0
 22 29  2  0  0  0  0
 23 57  1  0  0  0  0
 23 58  1  0  0  0  0
 24 27  2  0  0  0  0
 24 59  1  0  0  0  0
 25 27  1  0  0  0  0
 25 60  1  0  0  0  0
 26 30  1  0  0  0  0
 26 61  1  0  0  0  0
 26 62  1  0  0  0  0
 29 31  1  0  0  0  0
 29 64  1  0  0  0  0
 30 33  2  0  0  0  0
 30 34  1  0  0  0  0
 31 32  1  0  0  0  0
 33 36  1  0  0  0  0
 34 35  2  0  0  0  0
 34 66  1  0  0  0  0
 35 37  1  0  0  0  0
 36 37  2  0  0  0  0
 36 67  1  0  0  0  0
 37 68  1  0  0  0  0
M  END
> <PUBCHEM_COMPOUND_CID>
122582660

> <PUBCHEM_CONFORMER_RMSD>
1.2

> <PUBCHEM_CONFORMER_DIVERSEORDER>
1
134
31
37
133
98
52
45
63
69
123
130
22
18
88
117
27
38
57
136
65
115
114
99
132
53
25
47
74
78
95
55
7
58
138
39
50
139
68
112
61
83
19
70
36
21
28
77
84
125
75
90
62
43
91
8
13
35
105
116
51
49
64
93
109
92
73
118
4
9
127
131
80
141
26
81
71
41
60
72
89
42
129
122
14
110
128
54
121
24
20
96
124
3
137
67
44
40
103
5
66
29
101
108
106
104
135
2
79
119
126
85
23
34
94
100
17
140
10
86
120
87
6
48
46
15
32
30
97
33
107
59
113
76
142
16
82
111
12
56
102
11

> <PUBCHEM_MMFF94_PARTIAL_CHARGES>
45
1 -0.18
10 -0.31
11 0.27
12 0.27
13 0.37
14 0.37
15 0.27
16 0.1
19 -0.15
2 -0.18
20 -0.15
21 0.37
22 0.1
23 0.37
24 -0.15
25 -0.15
26 0.51
27 0.12
28 0.41
29 -0.15
3 -0.57
30 -0.14
31 0.4
32 0.54
33 0.18
34 -0.15
35 0.18
36 -0.15
37 -0.15
4 -0.81
5 -0.84
53 0.15
54 0.15
59 0.15
6 -0.84
60 0.15
63 0.4
64 0.15
65 0.37
66 0.15
67 0.15
68 0.15
7 -0.87
8 -0.55
9 -0.31

> <PUBCHEM_EFFECTIVE_ROTOR_COUNT>
9

> <PUBCHEM_PHARMACOPHORE_FEATURES>
14
1 10 acceptor
1 3 acceptor
1 4 cation
1 5 cation
1 6 cation
1 7 donor
1 8 donor
3 15 17 18 hydrophobe
3 7 9 28 cation
6 16 19 20 24 25 27 rings
6 30 33 34 35 36 37 rings
6 4 5 11 12 13 14 rings
6 6 7 21 22 23 28 rings
6 9 10 22 28 29 31 rings

> <PUBCHEM_HEAVY_ATOM_COUNT>
37

> <PUBCHEM_ATOM_DEF_STEREO_COUNT>
0

> <PUBCHEM_ATOM_UDEF_STEREO_COUNT>
0

> <PUBCHEM_BOND_DEF_STEREO_COUNT>
0

> <PUBCHEM_BOND_UDEF_STEREO_COUNT>
0

> <PUBCHEM_ISOTOPIC_ATOM_COUNT>
0

> <PUBCHEM_COMPONENT_COUNT>
1

> <PUBCHEM_CACTVS_TAUTO_COUNT>
14

> <PUBCHEM_CONFORMER_ID>
074E768400000001

> <PUBCHEM_MMFF94_ENERGY>
131.5569

> <PUBCHEM_FEATURE_SELFOVERLAP>
71.085

> <PUBCHEM_SHAPE_FINGERPRINT>
100830 39 18408318882972405485
10580692 12 18410573993894814786
10930396 42 16588313723257455333
11007060 377 18113613478744724507
11061554 47 18340480163150079856
11181472 205 17774168899249182098
11315181 36 18259701225009367999
11578821 258 18130786811353497904
12013929 29 18055916485216993720
12013929 94 18264489666815529378
12082328 90 18341891891879777078
12089408 11 18114178658429724526
12104220 1 18334287678848279805
12133447 93 18410020918999206950
12664476 115 18059855082523952891
12758862 11 18268987751345644227
13383665 225 18114759170493831716
13782708 43 11097867267305500527
13885169 127 18409445908129109014
14118638 360 18334285470819046259
14150022 121 18412266155997361587
14294032 229 17895185572586785860
14394314 77 18410012096134982801
15021287 119 16877948226410286245
15183329 4 18260540108988271111
15289351 153 18339632422145700352
15328684 2 17823397371603217128
15461852 350 17775280607835246246
15554971 5 18187357736800357910
15604295 49 18200024175166642168
1577012 14 18409444757178048714
16728433 281 18199755760800480112
1754908 1 12973605543597874964
18603816 31 13334747851776310313
19304152 47 17386005006281414965
19309040 13 17344345550434968213
21792961 116 17918276455136705770
21927370 108 17968949703777461043
24771293 8 18259705597475427732
3711267 37 17821452361604178364
4073 2 18114181934709907554
4169191 19 18336256869011956710
437795 83 18343576344310344487
4403749 210 17969215634624456509
44280117 145 18130504245117048639
44802255 64 17275098432133526823
4516262 110 18115861907304676479
504579 68 12031783648019492397
58083652 198 16009031725945140868
5937810 71 18342741806010143824
6201320 221 15050906162106595892
636775 72 18412823594701244376
6691757 9 16370727053870528706

> <PUBCHEM_SHAPE_MULTIPOLES>
724.45
34.46
4.13
1.52
87.88
0.85
0.27
17.23
2.76
-11.69
0.42
-3.28
1.42
-1.8

> <PUBCHEM_SHAPE_SELFOVERLAP>
1542.669

> <PUBCHEM_SHAPE_VOLUME>
404.6

> <PUBCHEM_COORDINATE_TYPE>
2
5
10

$$$$
