145159905
  -OEChem-07172214093D

 70 74  0     1  0  0  0  0  0999 V2000
   -4.9283    2.0851   -3.1962 Cl  0  0  0  0  0  0  0  0  0  0  0  0
   -6.7804    3.4020    2.6113 Cl  0  0  0  0  0  0  0  0  0  0  0  0
    5.9943   -1.5367   -2.5078 O   0  0  0  0  0  0  0  0  0  0  0  0
   -1.0009   -0.1851   -1.4444 O   0  0  0  0  0  0  0  0  0  0  0  0
    6.3045    0.2182   -0.9942 N   0  0  0  0  0  0  0  0  0  0  0  0
    9.0253    1.1947    2.0787 N   0  0  0  0  0  0  0  0  0  0  0  0
   -5.8729   -0.9279   -0.1155 N   0  0  1  0  0  0  0  0  0  0  0  0
   -5.5908   -2.8099    1.9533 N   0  0  0  0  0  0  0  0  0  0  0  0
    0.2151   -1.6057   -0.0187 N   0  0  0  0  0  0  0  0  0  0  0  0
   -3.2537   -2.8155    1.6543 N   0  0  0  0  0  0  0  0  0  0  0  0
   -2.1194   -2.3730    1.0505 N   0  0  0  0  0  0  0  0  0  0  0  0
    8.1621    1.3482    0.9101 C   0  0  0  0  0  0  0  0  0  0  0  0
    8.6298    0.4164   -0.2166 C   0  0  0  0  0  0  0  0  0  0  0  0
    6.7047    1.0493    1.2891 C   0  0  0  0  0  0  0  0  0  0  0  0
    7.6810    0.4838   -1.4127 C   0  0  0  0  0  0  0  0  0  0  0  0
    5.8006    1.1096    0.0591 C   0  0  0  0  0  0  0  0  0  0  0  0
    5.5729   -0.7899   -1.6258 C   0  0  0  0  0  0  0  0  0  0  0  0
    8.6197    2.1161    3.1403 C   0  0  0  0  0  0  0  0  0  0  0  0
   10.4245    1.4195    1.7155 C   0  0  0  0  0  0  0  0  0  0  0  0
    4.1817   -1.0018   -1.2073 C   0  0  0  0  0  0  0  0  0  0  0  0
   -7.0263   -1.7008    0.3432 C   0  0  0  0  0  0  0  0  0  0  0  0
   -4.6090   -1.3867    0.2558 C   0  0  0  0  0  0  0  0  0  0  0  0
   -6.8431   -2.1053    1.7993 C   0  0  0  0  0  0  0  0  0  0  0  0
    3.8908   -1.8944   -0.1757 C   0  0  0  0  0  0  0  0  0  0  0  0
    3.1503   -0.3103   -1.8427 C   0  0  0  0  0  0  0  0  0  0  0  0
   -6.0535   -0.0094   -1.2279 C   0  0  0  0  0  0  0  0  0  0  0  0
   -4.4678   -2.3342    1.2856 C   0  0  0  0  0  0  0  0  0  0  0  0
    2.5687   -2.0953    0.2209 C   0  0  0  0  0  0  0  0  0  0  0  0
    1.8281   -0.5111   -1.4463 C   0  0  0  0  0  0  0  0  0  0  0  0
    1.5375   -1.4036   -0.4144 C   0  0  0  0  0  0  0  0  0  0  0  0
   -3.4293   -0.9375   -0.3411 C   0  0  0  0  0  0  0  0  0  0  0  0
   -5.9449    1.4149   -0.7585 C   0  0  0  0  0  0  0  0  0  0  0  0
   -2.2193   -1.4515    0.0798 C   0  0  0  0  0  0  0  0  0  0  0  0
   -0.9415   -1.0072   -0.5362 C   0  0  0  0  0  0  0  0  0  0  0  0
   -5.4467    2.4222   -1.5848 C   0  0  0  0  0  0  0  0  0  0  0  0
   -6.3574    1.7177    0.5390 C   0  0  0  0  0  0  0  0  0  0  0  0
   -6.2720    3.0277    1.0103 C   0  0  0  0  0  0  0  0  0  0  0  0
   -5.3610    3.7324   -1.1135 C   0  0  0  0  0  0  0  0  0  0  0  0
   -5.7736    4.0350    0.1840 C   0  0  0  0  0  0  0  0  0  0  0  0
    8.2139    2.3818    0.5367 H   0  0  0  0  0  0  0  0  0  0  0  0
    9.6230    0.6862   -0.5905 H   0  0  0  0  0  0  0  0  0  0  0  0
    8.6781   -0.6194    0.1450 H   0  0  0  0  0  0  0  0  0  0  0  0
    6.6288    0.0527    1.7439 H   0  0  0  0  0  0  0  0  0  0  0  0
    6.3099    1.7738    2.0086 H   0  0  0  0  0  0  0  0  0  0  0  0
    7.7007    1.4822   -1.8656 H   0  0  0  0  0  0  0  0  0  0  0  0
    7.9988   -0.2305   -2.1789 H   0  0  0  0  0  0  0  0  0  0  0  0
    4.7778    0.8598    0.3483 H   0  0  0  0  0  0  0  0  0  0  0  0
    5.7817    2.1247   -0.3554 H   0  0  0  0  0  0  0  0  0  0  0  0
    7.6717    1.8210    3.6001 H   0  0  0  0  0  0  0  0  0  0  0  0
    8.5462    3.1526    2.7915 H   0  0  0  0  0  0  0  0  0  0  0  0
    9.3444    2.0948    3.9635 H   0  0  0  0  0  0  0  0  0  0  0  0
   10.8341    0.5913    1.1288 H   0  0  0  0  0  0  0  0  0  0  0  0
   10.5730    2.3609    1.1739 H   0  0  0  0  0  0  0  0  0  0  0  0
   11.0526    1.4546    2.6144 H   0  0  0  0  0  0  0  0  0  0  0  0
   -7.1375   -2.5909   -0.2894 H   0  0  0  0  0  0  0  0  0  0  0  0
   -7.9490   -1.1164    0.2478 H   0  0  0  0  0  0  0  0  0  0  0  0
   -7.6693   -2.7483    2.1199 H   0  0  0  0  0  0  0  0  0  0  0  0
   -6.8438   -1.2207    2.4474 H   0  0  0  0  0  0  0  0  0  0  0  0
    4.6873   -2.4377    0.3264 H   0  0  0  0  0  0  0  0  0  0  0  0
    3.3674    0.3875   -2.6474 H   0  0  0  0  0  0  0  0  0  0  0  0
   -7.0615   -0.1270   -1.6491 H   0  0  0  0  0  0  0  0  0  0  0  0
   -5.3776   -0.2659   -2.0487 H   0  0  0  0  0  0  0  0  0  0  0  0
   -5.4641   -3.4732    2.7073 H   0  0  0  0  0  0  0  0  0  0  0  0
    2.3567   -2.7938    1.0264 H   0  0  0  0  0  0  0  0  0  0  0  0
    1.0872    0.0611   -1.9863 H   0  0  0  0  0  0  0  0  0  0  0  0
   -3.4445   -0.1901   -1.1263 H   0  0  0  0  0  0  0  0  0  0  0  0
    0.0839   -2.2747    0.7373 H   0  0  0  0  0  0  0  0  0  0  0  0
   -6.7717    0.9630    1.2000 H   0  0  0  0  0  0  0  0  0  0  0  0
   -4.9752    4.5287   -1.7450 H   0  0  0  0  0  0  0  0  0  0  0  0
   -5.7011    5.0602    0.5379 H   0  0  0  0  0  0  0  0  0  0  0  0
  1 35  1  0  0  0  0
  2 37  1  0  0  0  0
  3 17  2  0  0  0  0
  4 34  2  0  0  0  0
  5 15  1  0  0  0  0
  5 16  1  0  0  0  0
  5 17  1  0  0  0  0
  6 12  1  0  0  0  0
  6 18  1  0  0  0  0
  6 19  1  0  0  0  0
  7 21  1  0  0  0  0
  7 22  1  0  0  0  0
  7 26  1  0  0  0  0
  8 23  1  0  0  0  0
  8 27  1  0  0  0  0
  8 63  1  0  0  0  0
  9 30  1  0  0  0  0
  9 34  1  0  0  0  0
  9 67  1  0  0  0  0
 10 11  1  0  0  0  0
 10 27  2  0  0  0  0
 11 33  2  0  0  0  0
 12 13  1  0  0  0  0
 12 14  1  0  0  0  0
 12 40  1  0  0  0  0
 13 15  1  0  0  0  0
 13 41  1  0  0  0  0
 13 42  1  0  0  0  0
 14 16  1  0  0  0  0
 14 43  1  0  0  0  0
 14 44  1  0  0  0  0
 15 45  1  0  0  0  0
 15 46  1  0  0  0  0
 16 47  1  0  0  0  0
 16 48  1  0  0  0  0
 17 20  1  0  0  0  0
 18 49  1  0  0  0  0
 18 50  1  0  0  0  0
 18 51  1  0  0  0  0
 19 52  1  0  0  0  0
 19 53  1  0  0  0  0
 19 54  1  0  0  0  0
 20 24  2  0  0  0  0
 20 25  1  0  0  0  0
 21 23  1  0  0  0  0
 21 55  1  0  0  0  0
 21 56  1  0  0  0  0
 22 27  1  0  0  0  0
 22 31  2  0  0  0  0
 23 57  1  0  0  0  0
 23 58  1  0  0  0  0
 24 28  1  0  0  0  0
 24 59  1  0  0  0  0
 25 29  2  0  0  0  0
 25 60  1  0  0  0  0
 26 32  1  0  0  0  0
 26 61  1  0  0  0  0
 26 62  1  0  0  0  0
 28 30  2  0  0  0  0
 28 64  1  0  0  0  0
 29 30  1  0  0  0  0
 29 65  1  0  0  0  0
 31 33  1  0  0  0  0
 31 66  1  0  0  0  0
 32 35  2  0  0  0  0
 32 36  1  0  0  0  0
 33 34  1  0  0  0  0
 35 38  1  0  0  0  0
 36 37  2  0  0  0  0
 36 68  1  0  0  0  0
 37 39  1  0  0  0  0
 38 39  2  0  0  0  0
 38 69  1  0  0  0  0
 39 70  1  0  0  0  0
M  END
> <PUBCHEM_COMPOUND_CID>
145159905

> <PUBCHEM_CONFORMER_RMSD>
1.2

> <PUBCHEM_CONFORMER_DIVERSEORDER>
1
141
97
116
9
153
167
61
121
169
162
160
183
177
203
201
36
187
72
195
148
58
140
204
98
27
125
179
170
48
220
92
149
208
87
184
69
78
159
144
213
47
102
52
7
215
129
64
214
59
104
90
205
50
199
210
127
194
15
115
85
189
185
114
152
181
34
66
17
77
219
26
157
168
63
81
190
22
158
67
218
150
202
166
24
8
122
164
176
93
86
74
198
45
19
175
4
209
105
28
79
217
197
41
196
95
163
118
43
88
182
14
139
57
143
108
138
113
29
96
136
76
99
103
44
180
137
133
100
135
106
25
91
40
75
60
49
16
35
80
206
55
156
200
147
110
31
83
117
145
207
23
161
216
151
94
154
70
56
186
20
165
178
101
32
11
71
173
212
38
172
130
171
120
146
30
211
54
6
132
124
89
155
12
134
174
131
112
42
193
188
18
37
109
5
123
62
3
126
68
142
191
2
73
128
65
10
107
46
119
192
33
84
39
82
53
51
13
111
21

> <PUBCHEM_MMFF94_PARTIAL_CHARGES>
47
1 -0.18
10 -0.31
11 -0.31
12 0.27
15 0.3
16 0.3
17 0.54
18 0.27
19 0.27
2 -0.18
20 0.09
21 0.37
22 0.1
23 0.37
24 -0.15
25 -0.15
26 0.51
27 0.41
28 -0.15
29 -0.15
3 -0.57
30 0.12
31 -0.15
32 -0.14
33 0.4
34 0.54
35 0.18
36 -0.15
37 0.18
38 -0.15
39 -0.15
4 -0.57
5 -0.66
59 0.15
6 -0.81
60 0.15
63 0.4
64 0.15
65 0.15
66 0.15
67 0.37
68 0.15
69 0.15
7 -0.84
70 0.15
8 -0.87
9 -0.55

> <PUBCHEM_EFFECTIVE_ROTOR_COUNT>
10

> <PUBCHEM_PHARMACOPHORE_FEATURES>
13
1 11 acceptor
1 3 acceptor
1 4 acceptor
1 6 cation
1 7 cation
1 8 donor
1 9 donor
3 8 10 27 cation
6 10 11 22 27 31 33 rings
6 20 24 25 28 29 30 rings
6 32 35 36 37 38 39 rings
6 5 12 13 14 15 16 rings
6 7 8 21 22 23 27 rings

> <PUBCHEM_HEAVY_ATOM_COUNT>
39

> <PUBCHEM_ATOM_DEF_STEREO_COUNT>
0

> <PUBCHEM_ATOM_UDEF_STEREO_COUNT>
0

> <PUBCHEM_BOND_DEF_STEREO_COUNT>
0

> <PUBCHEM_BOND_UDEF_STEREO_COUNT>
0

> <PUBCHEM_ISOTOPIC_ATOM_COUNT>
0

> <PUBCHEM_COMPONENT_COUNT>
1

> <PUBCHEM_CACTVS_TAUTO_COUNT>
-1

> <PUBCHEM_CONFORMER_ID>
08A6F6E100000001

> <PUBCHEM_MMFF94_ENERGY>
127.9893

> <PUBCHEM_FEATURE_SELFOVERLAP>
66.007

> <PUBCHEM_SHAPE_FINGERPRINT>
10554248 39 16128385809590687574
10625338 131 18334857234277188004
10625338 86 18202001040420448984
11456790 92 16660361472860569052
11505856 67 16627730037247376745
11578821 258 17988924500885317512
11761917 87 13623521317694333232
11828042 291 15769235864681900532
12013929 29 17628364774876159529
12047536 79 18343014455778678938
12717326 25 12973602244561760457
12888983 3 18201428195316980976
13383668 251 17986386909552126819
13782708 43 8862645902939661015
14118638 360 18186240619864609675
14294032 229 17313672551083455030
14598715 104 18342171172465575424
15021287 119 15792026575465560903
15183329 4 17676496033841989679
15289351 153 18409159996852088858
15328684 2 17240758484832706416
15400415 2 18261117326913643015
15419008 145 17603577543637185988
15604295 49 18130786789102707344
17686467 74 18200876288109111707
19309040 13 17841997681646612477
21033648 29 18411978075339955126
21130935 74 18114464478959577010
21772523 7 17059756889796545120
21781051 124 11241975850507580656
21814621 53 18339933627759680534
23522609 53 16226634930096145926
23569943 247 14852150858745075744
437795 83 17203331087189802785
44802255 64 17775002380529240071
4616759 239 18113339747541405651
504579 68 13973959891879453135
5104073 3 17968094192249861043
5937810 71 17561087964843798433
636775 72 18410856564009259541

> <PUBCHEM_SHAPE_MULTIPOLES>
759.74
33.17
4.14
2.61
60.25
2.62
0.14
22.12
13.57
-9.99
1.87
0.76
1.24
6.23

> <PUBCHEM_SHAPE_SELFOVERLAP>
1619.748

> <PUBCHEM_SHAPE_VOLUME>
423.1

> <PUBCHEM_COORDINATE_TYPE>
2
5
10

$$$$
