122582661
  -OEChem-07172214103D

 70 74  0     1  0  0  0  0  0999 V2000
   -4.8692    2.0147   -3.2519 Cl  0  0  0  0  0  0  0  0  0  0  0  0
   -6.7115    3.4866    2.5214 Cl  0  0  0  0  0  0  0  0  0  0  0  0
    6.0179   -1.6725   -2.4834 O   0  0  0  0  0  0  0  0  0  0  0  0
   -0.9621   -0.2466   -1.4440 O   0  0  0  0  0  0  0  0  0  0  0  0
    8.1566    1.5113    0.7180 N   0  0  0  0  0  0  0  0  0  0  0  0
    6.3479    0.1043   -1.0005 N   0  0  0  0  0  0  0  0  0  0  0  0
   -5.8407   -0.9150   -0.1002 N   0  0  1  0  0  0  0  0  0  0  0  0
   -5.5756   -2.7492    2.0134 N   0  0  0  0  0  0  0  0  0  0  0  0
   -3.2385   -2.7821    1.7157 N   0  0  0  0  0  0  0  0  0  0  0  0
    0.2412   -1.6430    0.0160 N   0  0  0  0  0  0  0  0  0  0  0  0
   -2.1002   -2.3642    1.1022 N   0  0  0  0  0  0  0  0  0  0  0  0
    6.7939    1.1977    1.1714 C   0  0  0  0  0  0  0  0  0  0  0  0
    8.6505    0.4636   -0.1875 C   0  0  0  0  0  0  0  0  0  0  0  0
    5.8356    1.0617   -0.0138 C   0  0  0  0  0  0  0  0  0  0  0  0
    7.7349    0.3267   -1.4027 C   0  0  0  0  0  0  0  0  0  0  0  0
    9.0551    1.6673    1.8611 C   0  0  0  0  0  0  0  0  0  0  0  0
    8.8567    3.0481    2.4782 C   0  0  0  0  0  0  0  0  0  0  0  0
    8.8015    0.5667    2.8875 C   0  0  0  0  0  0  0  0  0  0  0  0
    5.6071   -0.9122   -1.6078 C   0  0  0  0  0  0  0  0  0  0  0  0
    4.2132   -1.1021   -1.1848 C   0  0  0  0  0  0  0  0  0  0  0  0
   -7.0009   -1.6669    0.3763 C   0  0  0  0  0  0  0  0  0  0  0  0
   -6.8216   -2.0377    1.8420 C   0  0  0  0  0  0  0  0  0  0  0  0
   -4.5810   -1.3757    0.2827 C   0  0  0  0  0  0  0  0  0  0  0  0
   -6.0130   -0.0221   -1.2344 C   0  0  0  0  0  0  0  0  0  0  0  0
   -4.4482   -2.2994    1.3350 C   0  0  0  0  0  0  0  0  0  0  0  0
    3.1879   -0.4171   -1.8371 C   0  0  0  0  0  0  0  0  0  0  0  0
    3.9143   -1.9671   -0.1321 C   0  0  0  0  0  0  0  0  0  0  0  0
   -3.3972   -0.9513   -0.3242 C   0  0  0  0  0  0  0  0  0  0  0  0
   -5.8922    1.4121   -0.7993 C   0  0  0  0  0  0  0  0  0  0  0  0
    1.5653   -1.4619   -0.3839 C   0  0  0  0  0  0  0  0  0  0  0  0
    1.8641   -0.5970   -1.4367 C   0  0  0  0  0  0  0  0  0  0  0  0
    2.5905   -2.1469    0.2684 C   0  0  0  0  0  0  0  0  0  0  0  0
   -2.1919   -1.4654    0.1096 C   0  0  0  0  0  0  0  0  0  0  0  0
   -0.9101   -1.0470   -0.5164 C   0  0  0  0  0  0  0  0  0  0  0  0
   -5.3852    2.3950   -1.6493 C   0  0  0  0  0  0  0  0  0  0  0  0
   -6.3025    1.7495    0.4904 C   0  0  0  0  0  0  0  0  0  0  0  0
   -6.2059    3.0697    0.9301 C   0  0  0  0  0  0  0  0  0  0  0  0
   -5.2883    3.7152   -1.2096 C   0  0  0  0  0  0  0  0  0  0  0  0
   -5.6986    4.0525    0.0801 C   0  0  0  0  0  0  0  0  0  0  0  0
    6.7340    0.2419    1.7056 H   0  0  0  0  0  0  0  0  0  0  0  0
    6.3974    1.9808    1.8262 H   0  0  0  0  0  0  0  0  0  0  0  0
    9.6550    0.7189   -0.5461 H   0  0  0  0  0  0  0  0  0  0  0  0
    8.7171   -0.5105    0.3113 H   0  0  0  0  0  0  0  0  0  0  0  0
    4.8449    0.7787    0.3489 H   0  0  0  0  0  0  0  0  0  0  0  0
    5.7290    2.0240   -0.5297 H   0  0  0  0  0  0  0  0  0  0  0  0
    7.7536    1.2444   -2.0036 H   0  0  0  0  0  0  0  0  0  0  0  0
    8.0872   -0.4889   -2.0428 H   0  0  0  0  0  0  0  0  0  0  0  0
   10.0992    1.6155    1.5263 H   0  0  0  0  0  0  0  0  0  0  0  0
    7.8703    3.1760    2.9350 H   0  0  0  0  0  0  0  0  0  0  0  0
    8.9896    3.8367    1.7289 H   0  0  0  0  0  0  0  0  0  0  0  0
    9.6000    3.2182    3.2656 H   0  0  0  0  0  0  0  0  0  0  0  0
    7.8739    0.7012    3.4551 H   0  0  0  0  0  0  0  0  0  0  0  0
    8.8266   -0.4428    2.4667 H   0  0  0  0  0  0  0  0  0  0  0  0
    9.6043    0.5960    3.6358 H   0  0  0  0  0  0  0  0  0  0  0  0
   -7.1196   -2.5709   -0.2348 H   0  0  0  0  0  0  0  0  0  0  0  0
   -7.9185   -1.0769    0.2665 H   0  0  0  0  0  0  0  0  0  0  0  0
   -7.6534   -2.6656    2.1776 H   0  0  0  0  0  0  0  0  0  0  0  0
   -6.8148   -1.1378    2.4685 H   0  0  0  0  0  0  0  0  0  0  0  0
   -7.0219   -0.1411   -1.6532 H   0  0  0  0  0  0  0  0  0  0  0  0
   -5.3391   -0.3040   -2.0485 H   0  0  0  0  0  0  0  0  0  0  0  0
   -5.4548   -3.3953    2.7831 H   0  0  0  0  0  0  0  0  0  0  0  0
    3.4114    0.2593   -2.6583 H   0  0  0  0  0  0  0  0  0  0  0  0
    4.7059   -2.5051    0.3832 H   0  0  0  0  0  0  0  0  0  0  0  0
   -3.4057   -0.2229   -1.1271 H   0  0  0  0  0  0  0  0  0  0  0  0
    1.1283   -0.0315   -1.9906 H   0  0  0  0  0  0  0  0  0  0  0  0
    2.3721   -2.8240    1.0904 H   0  0  0  0  0  0  0  0  0  0  0  0
    0.1039   -2.2925    0.7877 H   0  0  0  0  0  0  0  0  0  0  0  0
   -6.7234    1.0145    1.1691 H   0  0  0  0  0  0  0  0  0  0  0  0
   -4.8954    4.4927   -1.8599 H   0  0  0  0  0  0  0  0  0  0  0  0
   -5.6173    5.0853    0.4093 H   0  0  0  0  0  0  0  0  0  0  0  0
  1 35  1  0  0  0  0
  2 37  1  0  0  0  0
  3 19  2  0  0  0  0
  4 34  2  0  0  0  0
  5 12  1  0  0  0  0
  5 13  1  0  0  0  0
  5 16  1  0  0  0  0
  6 14  1  0  0  0  0
  6 15  1  0  0  0  0
  6 19  1  0  0  0  0
  7 21  1  0  0  0  0
  7 23  1  0  0  0  0
  7 24  1  0  0  0  0
  8 22  1  0  0  0  0
  8 25  1  0  0  0  0
  8 61  1  0  0  0  0
  9 11  1  0  0  0  0
  9 25  2  0  0  0  0
 10 30  1  0  0  0  0
 10 34  1  0  0  0  0
 10 67  1  0  0  0  0
 11 33  2  0  0  0  0
 12 14  1  0  0  0  0
 12 40  1  0  0  0  0
 12 41  1  0  0  0  0
 13 15  1  0  0  0  0
 13 42  1  0  0  0  0
 13 43  1  0  0  0  0
 14 44  1  0  0  0  0
 14 45  1  0  0  0  0
 15 46  1  0  0  0  0
 15 47  1  0  0  0  0
 16 17  1  0  0  0  0
 16 18  1  0  0  0  0
 16 48  1  0  0  0  0
 17 49  1  0  0  0  0
 17 50  1  0  0  0  0
 17 51  1  0  0  0  0
 18 52  1  0  0  0  0
 18 53  1  0  0  0  0
 18 54  1  0  0  0  0
 19 20  1  0  0  0  0
 20 26  2  0  0  0  0
 20 27  1  0  0  0  0
 21 22  1  0  0  0  0
 21 55  1  0  0  0  0
 21 56  1  0  0  0  0
 22 57  1  0  0  0  0
 22 58  1  0  0  0  0
 23 25  1  0  0  0  0
 23 28  2  0  0  0  0
 24 29  1  0  0  0  0
 24 59  1  0  0  0  0
 24 60  1  0  0  0  0
 26 31  1  0  0  0  0
 26 62  1  0  0  0  0
 27 32  2  0  0  0  0
 27 63  1  0  0  0  0
 28 33  1  0  0  0  0
 28 64  1  0  0  0  0
 29 35  2  0  0  0  0
 29 36  1  0  0  0  0
 30 31  2  0  0  0  0
 30 32  1  0  0  0  0
 31 65  1  0  0  0  0
 32 66  1  0  0  0  0
 33 34  1  0  0  0  0
 35 38  1  0  0  0  0
 36 37  2  0  0  0  0
 36 68  1  0  0  0  0
 37 39  1  0  0  0  0
 38 39  2  0  0  0  0
 38 69  1  0  0  0  0
 39 70  1  0  0  0  0
M  END
> <PUBCHEM_COMPOUND_CID>
122582661

> <PUBCHEM_CONFORMER_RMSD>
1.2

> <PUBCHEM_CONFORMER_DIVERSEORDER>
1
90
73
122
35
20
137
124
150
72
14
117
94
58
17
159
121
148
149
146
123
57
109
23
91
106
120
107
126
69
22
26
127
111
97
129
141
64
112
79
143
140
138
101
105
81
132
100
41
88
70
139
115
145
93
108
152
44
154
49
80
87
52
59
30
131
16
136
99
85
27
153
39
104
144
48
15
38
151
157
83
147
84
3
114
21
86
63
28
76
13
118
4
68
50
18
66
82
78
125
6
134
95
119
19
103
128
29
60
74
160
142
98
25
12
54
116
67
65
75
161
37
156
62
77
53
46
61
7
133
89
47
42
135
40
158
8
55
71
155
96
51
2
34
31
92
102
130
10
24
5
56
33
32
113
110
11
45
9
43
36

> <PUBCHEM_MMFF94_PARTIAL_CHARGES>
47
1 -0.18
10 -0.55
11 -0.31
12 0.27
13 0.27
14 0.3
15 0.3
16 0.27
19 0.54
2 -0.18
20 0.09
21 0.37
22 0.37
23 0.1
24 0.51
25 0.41
26 -0.15
27 -0.15
28 -0.15
29 -0.14
3 -0.57
30 0.12
31 -0.15
32 -0.15
33 0.4
34 0.54
35 0.18
36 -0.15
37 0.18
38 -0.15
39 -0.15
4 -0.57
5 -0.81
6 -0.66
61 0.4
62 0.15
63 0.15
64 0.15
65 0.15
66 0.15
67 0.37
68 0.15
69 0.15
7 -0.84
70 0.15
8 -0.87
9 -0.31

> <PUBCHEM_EFFECTIVE_ROTOR_COUNT>
10

> <PUBCHEM_PHARMACOPHORE_FEATURES>
14
1 10 donor
1 11 acceptor
1 3 acceptor
1 4 acceptor
1 5 cation
1 7 cation
1 8 donor
3 16 17 18 hydrophobe
3 8 9 25 cation
6 20 26 27 30 31 32 rings
6 29 35 36 37 38 39 rings
6 5 6 12 13 14 15 rings
6 7 8 21 22 23 25 rings
6 9 11 23 25 28 33 rings

> <PUBCHEM_HEAVY_ATOM_COUNT>
39

> <PUBCHEM_ATOM_DEF_STEREO_COUNT>
0

> <PUBCHEM_ATOM_UDEF_STEREO_COUNT>
0

> <PUBCHEM_BOND_DEF_STEREO_COUNT>
0

> <PUBCHEM_BOND_UDEF_STEREO_COUNT>
0

> <PUBCHEM_ISOTOPIC_ATOM_COUNT>
0

> <PUBCHEM_COMPONENT_COUNT>
1

> <PUBCHEM_CACTVS_TAUTO_COUNT>
24

> <PUBCHEM_CONFORMER_ID>
074E768500000001

> <PUBCHEM_MMFF94_ENERGY>
125.8059

> <PUBCHEM_FEATURE_SELFOVERLAP>
71.082

> <PUBCHEM_SHAPE_FINGERPRINT>
10280341 67 18263915566894782485
10554248 39 16199880453722718942
10625338 131 18334294288592360284
10625338 86 18272651259564274176
11456790 92 16587739833684194836
11476731 118 18131350795824221208
11505856 67 16699506156261153721
11578821 258 17917428752872812176
11761917 87 13479406125323497080
11828042 291 15769235864703012476
12013929 29 17699576844445966889
12047536 79 18342451514462580674
12539747 164 11026337413285746422
12717326 25 12685090393438625769
12888983 3 18272079514035737256
13383668 251 17986105434543761179
13782708 43 8934703492624657871
14118638 360 18113620075857442691
14294032 229 17240770532131336318
14395042 24 17677358069240289217
14598715 104 18341608222549057864
15183329 4 17676214558865279039
15289351 153 18410566268013313186
15328684 2 17167857565476474888
15400415 2 18188215307924509975
15419008 145 17530955900155320932
15604295 49 18202001057621897792
17686467 74 18270964656826935107
19309040 13 17841434727387641893
21033648 29 18411976975796717774
21130935 74 18114182999661531818
21814621 53 18411146801215197726
23522609 53 16081956792088045686
44802255 64 17846498124141270183
4616759 239 18040437728599706507
504579 68 14045736015177634895
5104073 3 17967531242254241715
5937810 71 17703514307328003321
6289498 60 18040153998776481212
636775 72 18409732863152020389

> <PUBCHEM_SHAPE_MULTIPOLES>
759.74
32.44
4.3
2.65
53.66
3.28
0.08
22.23
12.62
-8.46
2.01
0.78
1.06
6.67

> <PUBCHEM_SHAPE_SELFOVERLAP>
1619.052

> <PUBCHEM_SHAPE_VOLUME>
423.4

> <PUBCHEM_COORDINATE_TYPE>
2
5
10

$$$$
