122582650
  -OEChem-07172214053D

 71 75  0     1  0  0  0  0  0999 V2000
   -4.5913    3.1212   -2.4123 Cl  0  0  0  0  0  0  0  0  0  0  0  0
   -7.5715    2.1941    2.9870 Cl  0  0  0  0  0  0  0  0  0  0  0  0
   -0.8759    0.4033   -0.8452 O   0  0  0  0  0  0  0  0  0  0  0  0
    5.5817   -0.0447    0.0899 N   0  0  0  0  0  0  0  0  0  0  0  0
    9.5983    1.2044   -0.4171 N   0  0  0  0  0  0  0  0  0  0  0  0
   -5.8309   -0.8219   -0.8707 N   0  0  1  0  0  0  0  0  0  0  0  0
   -5.7770   -3.3297    0.3979 N   0  0  0  0  0  0  0  0  0  0  0  0
    0.1515   -1.4355    0.1890 N   0  0  0  0  0  0  0  0  0  0  0  0
   -3.4320   -3.2028    0.5893 N   0  0  0  0  0  0  0  0  0  0  0  0
   -2.2468   -2.5586    0.4235 N   0  0  0  0  0  0  0  0  0  0  0  0
    8.3774    0.6799    0.1922 C   0  0  0  0  0  0  0  0  0  0  0  0
    7.8983   -0.5542   -0.5754 C   0  0  0  0  0  0  0  0  0  0  0  0
    7.2752    1.7429    0.1989 C   0  0  0  0  0  0  0  0  0  0  0  0
    6.5956   -1.1021    0.0091 C   0  0  0  0  0  0  0  0  0  0  0  0
    5.9773    1.1881    0.7854 C   0  0  0  0  0  0  0  0  0  0  0  0
   10.7520    0.4083   -0.0281 C   0  0  0  0  0  0  0  0  0  0  0  0
    4.2256   -0.3920    0.1156 C   0  0  0  0  0  0  0  0  0  0  0  0
   11.2103    0.7922    1.3761 C   0  0  0  0  0  0  0  0  0  0  0  0
   11.8724    0.6077   -1.0439 C   0  0  0  0  0  0  0  0  0  0  0  0
    3.8261   -1.6043    0.6783 C   0  0  0  0  0  0  0  0  0  0  0  0
    3.2740    0.4741   -0.4229 C   0  0  0  0  0  0  0  0  0  0  0  0
    2.4751   -1.9501    0.7028 C   0  0  0  0  0  0  0  0  0  0  0  0
    1.9230    0.1283   -0.3986 C   0  0  0  0  0  0  0  0  0  0  0  0
    1.5236   -1.0838    0.1643 C   0  0  0  0  0  0  0  0  0  0  0  0
   -6.9813   -1.7203   -0.9593 C   0  0  0  0  0  0  0  0  0  0  0  0
   -4.6225   -1.3730   -0.4444 C   0  0  0  0  0  0  0  0  0  0  0  0
   -7.0337   -2.6297    0.2603 C   0  0  0  0  0  0  0  0  0  0  0  0
   -5.8807    0.4393   -1.5921 C   0  0  0  0  0  0  0  0  0  0  0  0
   -4.5940   -2.6313    0.1834 C   0  0  0  0  0  0  0  0  0  0  0  0
   -3.3947   -0.7248   -0.5925 C   0  0  0  0  0  0  0  0  0  0  0  0
   -5.9764    1.5925   -0.6319 C   0  0  0  0  0  0  0  0  0  0  0  0
   -2.2436   -1.3460   -0.1515 C   0  0  0  0  0  0  0  0  0  0  0  0
   -0.9473   -0.7096   -0.2958 C   0  0  0  0  0  0  0  0  0  0  0  0
   -5.4204    2.8376   -0.9252 C   0  0  0  0  0  0  0  0  0  0  0  0
   -6.6417    1.3932    0.5778 C   0  0  0  0  0  0  0  0  0  0  0  0
   -6.7512    2.4393    1.4941 C   0  0  0  0  0  0  0  0  0  0  0  0
   -5.5296    3.8836   -0.0088 C   0  0  0  0  0  0  0  0  0  0  0  0
   -6.1950    3.6844    1.2008 C   0  0  0  0  0  0  0  0  0  0  0  0
    8.5460    0.4009    1.2390 H   0  0  0  0  0  0  0  0  0  0  0  0
    7.7321   -0.2928   -1.6296 H   0  0  0  0  0  0  0  0  0  0  0  0
    8.6372   -1.3618   -0.5644 H   0  0  0  0  0  0  0  0  0  0  0  0
    7.5900    2.6162    0.7832 H   0  0  0  0  0  0  0  0  0  0  0  0
    7.0860    2.0927   -0.8249 H   0  0  0  0  0  0  0  0  0  0  0  0
    6.2559   -1.9194   -0.6394 H   0  0  0  0  0  0  0  0  0  0  0  0
    6.7844   -1.5171    1.0071 H   0  0  0  0  0  0  0  0  0  0  0  0
    6.1082    0.9733    1.8535 H   0  0  0  0  0  0  0  0  0  0  0  0
    5.2103    1.9672    0.7079 H   0  0  0  0  0  0  0  0  0  0  0  0
    9.7412    2.1762   -0.1441 H   0  0  0  0  0  0  0  0  0  0  0  0
   10.5325   -0.6644   -0.0303 H   0  0  0  0  0  0  0  0  0  0  0  0
   11.4471    1.8604    1.4442 H   0  0  0  0  0  0  0  0  0  0  0  0
   12.1192    0.2405    1.6426 H   0  0  0  0  0  0  0  0  0  0  0  0
   10.4645    0.5622    2.1423 H   0  0  0  0  0  0  0  0  0  0  0  0
   12.7471    0.0028   -0.7810 H   0  0  0  0  0  0  0  0  0  0  0  0
   11.5503    0.3069   -2.0472 H   0  0  0  0  0  0  0  0  0  0  0  0
   12.1918    1.6550   -1.0904 H   0  0  0  0  0  0  0  0  0  0  0  0
    4.5378   -2.2957    1.1203 H   0  0  0  0  0  0  0  0  0  0  0  0
    3.5679    1.4161   -0.8792 H   0  0  0  0  0  0  0  0  0  0  0  0
    2.1764   -2.8961    1.1472 H   0  0  0  0  0  0  0  0  0  0  0  0
    1.2472    0.8483   -0.8375 H   0  0  0  0  0  0  0  0  0  0  0  0
   -6.9022   -2.3166   -1.8775 H   0  0  0  0  0  0  0  0  0  0  0  0
   -7.9159   -1.1505   -1.0209 H   0  0  0  0  0  0  0  0  0  0  0  0
   -7.2249   -2.0452    1.1681 H   0  0  0  0  0  0  0  0  0  0  0  0
   -7.8489   -3.3533    0.1576 H   0  0  0  0  0  0  0  0  0  0  0  0
   -6.7821    0.4752   -2.2194 H   0  0  0  0  0  0  0  0  0  0  0  0
   -5.0480    0.5089   -2.2979 H   0  0  0  0  0  0  0  0  0  0  0  0
   -5.7357   -4.2225    0.8731 H   0  0  0  0  0  0  0  0  0  0  0  0
   -0.0490   -2.3384    0.6145 H   0  0  0  0  0  0  0  0  0  0  0  0
   -3.3288    0.2589   -1.0439 H   0  0  0  0  0  0  0  0  0  0  0  0
   -7.1060    0.4445    0.8276 H   0  0  0  0  0  0  0  0  0  0  0  0
   -5.1018    4.8599   -0.2224 H   0  0  0  0  0  0  0  0  0  0  0  0
   -6.2724    4.5084    1.9054 H   0  0  0  0  0  0  0  0  0  0  0  0
  1 34  1  0  0  0  0
  2 36  1  0  0  0  0
  3 33  2  0  0  0  0
  4 14  1  0  0  0  0
  4 15  1  0  0  0  0
  4 17  1  0  0  0  0
  5 11  1  0  0  0  0
  5 16  1  0  0  0  0
  5 48  1  0  0  0  0
  6 25  1  0  0  0  0
  6 26  1  0  0  0  0
  6 28  1  0  0  0  0
  7 27  1  0  0  0  0
  7 29  1  0  0  0  0
  7 66  1  0  0  0  0
  8 24  1  0  0  0  0
  8 33  1  0  0  0  0
  8 67  1  0  0  0  0
  9 10  1  0  0  0  0
  9 29  2  0  0  0  0
 10 32  2  0  0  0  0
 11 12  1  0  0  0  0
 11 13  1  0  0  0  0
 11 39  1  0  0  0  0
 12 14  1  0  0  0  0
 12 40  1  0  0  0  0
 12 41  1  0  0  0  0
 13 15  1  0  0  0  0
 13 42  1  0  0  0  0
 13 43  1  0  0  0  0
 14 44  1  0  0  0  0
 14 45  1  0  0  0  0
 15 46  1  0  0  0  0
 15 47  1  0  0  0  0
 16 18  1  0  0  0  0
 16 19  1  0  0  0  0
 16 49  1  0  0  0  0
 17 20  2  0  0  0  0
 17 21  1  0  0  0  0
 18 50  1  0  0  0  0
 18 51  1  0  0  0  0
 18 52  1  0  0  0  0
 19 53  1  0  0  0  0
 19 54  1  0  0  0  0
 19 55  1  0  0  0  0
 20 22  1  0  0  0  0
 20 56  1  0  0  0  0
 21 23  2  0  0  0  0
 21 57  1  0  0  0  0
 22 24  2  0  0  0  0
 22 58  1  0  0  0  0
 23 24  1  0  0  0  0
 23 59  1  0  0  0  0
 25 27  1  0  0  0  0
 25 60  1  0  0  0  0
 25 61  1  0  0  0  0
 26 29  1  0  0  0  0
 26 30  2  0  0  0  0
 27 62  1  0  0  0  0
 27 63  1  0  0  0  0
 28 31  1  0  0  0  0
 28 64  1  0  0  0  0
 28 65  1  0  0  0  0
 30 32  1  0  0  0  0
 30 68  1  0  0  0  0
 31 34  2  0  0  0  0
 31 35  1  0  0  0  0
 32 33  1  0  0  0  0
 34 37  1  0  0  0  0
 35 36  2  0  0  0  0
 35 69  1  0  0  0  0
 36 38  1  0  0  0  0
 37 38  2  0  0  0  0
 37 70  1  0  0  0  0
 38 71  1  0  0  0  0
M  END
> <PUBCHEM_COMPOUND_CID>
122582650

> <PUBCHEM_CONFORMER_RMSD>
1

> <PUBCHEM_CONFORMER_DIVERSEORDER>
1
75
103
58
60
31
12
117
92
46
98
96
68
112
119
109
77
121
57
99
42
118
36
82
123
64
20
122
25
27
44
130
56
73
13
15
91
76
74
62
90
125
127
9
81
110
38
115
16
72
65
24
54
94
86
124
50
80
40
95
34
55
83
45
66
67
23
116
7
2
6
126
100
41
8
107
52
18
5
114
93
106
128
22
120
102
111
11
39
105
28
3
129
53
32
4
108
104
19
63
97
87
85
33
26
101
49
113
59
84
79
35
14
70
78
48
17
71
29
43
51
47
89
37
21
69
30
61
88
10

> <PUBCHEM_MMFF94_PARTIAL_CHARGES>
45
1 -0.18
10 -0.31
11 0.27
14 0.37
15 0.37
16 0.27
17 0.1
2 -0.18
20 -0.15
21 -0.15
22 -0.15
23 -0.15
24 0.12
25 0.37
26 0.1
27 0.37
28 0.51
29 0.41
3 -0.57
30 -0.15
31 -0.14
32 0.4
33 0.54
34 0.18
35 -0.15
36 0.18
37 -0.15
38 -0.15
4 -0.84
48 0.36
5 -0.9
56 0.15
57 0.15
58 0.15
59 0.15
6 -0.84
66 0.4
67 0.37
68 0.15
69 0.15
7 -0.87
70 0.15
71 0.15
8 -0.55
9 -0.31

> <PUBCHEM_EFFECTIVE_ROTOR_COUNT>
10

> <PUBCHEM_PHARMACOPHORE_FEATURES>
15
1 10 acceptor
1 3 acceptor
1 4 cation
1 5 cation
1 5 donor
1 6 cation
1 7 donor
1 8 donor
3 16 18 19 hydrophobe
3 7 9 29 cation
6 17 20 21 22 23 24 rings
6 31 34 35 36 37 38 rings
6 4 11 12 13 14 15 rings
6 6 7 25 26 27 29 rings
6 9 10 26 29 30 32 rings

> <PUBCHEM_HEAVY_ATOM_COUNT>
38

> <PUBCHEM_ATOM_DEF_STEREO_COUNT>
0

> <PUBCHEM_ATOM_UDEF_STEREO_COUNT>
0

> <PUBCHEM_BOND_DEF_STEREO_COUNT>
0

> <PUBCHEM_BOND_UDEF_STEREO_COUNT>
0

> <PUBCHEM_ISOTOPIC_ATOM_COUNT>
0

> <PUBCHEM_COMPONENT_COUNT>
1

> <PUBCHEM_CACTVS_TAUTO_COUNT>
14

> <PUBCHEM_CONFORMER_ID>
074E767A00000001

> <PUBCHEM_MMFF94_ENERGY>
120.9416

> <PUBCHEM_FEATURE_SELFOVERLAP>
76.157

> <PUBCHEM_SHAPE_FINGERPRINT>
100830 39 18408319978400036581
10580692 12 18410292510254323014
10930396 42 16588596293529967253
11061554 47 18411693319341260392
11181472 205 17702954621923857178
11315181 36 18260827125143031455
11578821 258 18131067186702523272
12013929 94 18263927807636121218
12082328 90 18413668006777921871
12089408 11 17822006533071440710
12120059 9 8430328931248892584
12133447 93 18409739439611646870
12645989 146 10663815295502724106
12664476 115 18131349726740360803
13885169 127 18409165528110615510
14118638 360 18334566946038382491
14294032 229 17749664104712051564
15021287 119 16805327682603520853
15183329 4 18260541204468708175
15289351 153 18339915005076455600
15328684 2 17823115892078344568
15510794 2 18342741819818458758
15604295 49 18271800289864320320
1577012 14 18409164377022437578
18603816 31 13262690262117732729
19304152 47 17313948507613102357
19309040 13 17415840190314165357
21026386 100 14907887315761986168
21772524 286 18339925896782150776
21792961 116 17846501439781811298
24771293 8 18187365420259019470
3711267 37 17821734931713185948
395649 100 18410292514469714281
4169191 19 18336539443642700455
437795 83 18343294865170515879
4403749 210 17969216734315412853
44280117 145 18130504240948675407
44802255 64 17275098427959859327
504579 68 12103559763028355037
5937810 71 18342741801467211208
636775 72 18411980269113948016
6691757 9 16298389084256696082

> <PUBCHEM_SHAPE_MULTIPOLES>
745.03
38.23
4.03
1.5
106.91
0.94
0.34
18.51
3.39
-12.86
0.56
-3.29
1.39
-1.1

> <PUBCHEM_SHAPE_SELFOVERLAP>
1579.754

> <PUBCHEM_SHAPE_VOLUME>
417.1

> <PUBCHEM_COORDINATE_TYPE>
2
5
10

$$$$
