122582662
  -OEChem-07172214023D

 69 73  0     1  0  0  0  0  0999 V2000
   -4.5220    3.0360   -2.4209 Cl  0  0  0  0  0  0  0  0  0  0  0  0
   -7.3443    1.9721    3.0376 Cl  0  0  0  0  0  0  0  0  0  0  0  0
   -0.6210    0.5608   -0.9030 O   0  0  0  0  0  0  0  0  0  0  0  0
    8.8415    0.2058    0.4430 N   0  0  0  0  0  0  0  0  0  0  0  0
   -5.4920   -0.9628   -0.8304 N   0  0  1  0  0  0  0  0  0  0  0  0
    0.5344   -1.2040    0.1248 N   0  0  0  0  0  0  0  0  0  0  0  0
   -5.2633   -3.4528    0.4540 N   0  0  0  0  0  0  0  0  0  0  0  0
   -2.9274   -3.1823    0.6020 N   0  0  0  0  0  0  0  0  0  0  0  0
   -1.7867   -2.4688    0.4104 N   0  0  0  0  0  0  0  0  0  0  0  0
    5.9781    0.5489   -0.0829 C   0  0  0  0  0  0  0  0  0  0  0  0
    6.8619   -0.3913   -0.9174 C   0  0  0  0  0  0  0  0  0  0  0  0
    6.5856    0.7297    1.3169 C   0  0  0  0  0  0  0  0  0  0  0  0
    8.3178    0.0819   -0.9243 C   0  0  0  0  0  0  0  0  0  0  0  0
    8.0516    1.1625    1.2304 C   0  0  0  0  0  0  0  0  0  0  0  0
   10.2490    0.6037    0.4175 C   0  0  0  0  0  0  0  0  0  0  0  0
    4.5357    0.0839   -0.0283 C   0  0  0  0  0  0  0  0  0  0  0  0
   10.4804    1.6612   -0.6582 C   0  0  0  0  0  0  0  0  0  0  0  0
   11.1197   -0.6249    0.1741 C   0  0  0  0  0  0  0  0  0  0  0  0
    4.2203   -1.1459    0.5497 C   0  0  0  0  0  0  0  0  0  0  0  0
    3.5241    0.8865   -0.5559 C   0  0  0  0  0  0  0  0  0  0  0  0
    2.8934   -1.5728    0.6003 C   0  0  0  0  0  0  0  0  0  0  0  0
    2.1972    0.4596   -0.5052 C   0  0  0  0  0  0  0  0  0  0  0  0
    1.8819   -0.7700    0.0729 C   0  0  0  0  0  0  0  0  0  0  0  0
   -6.5871   -1.9301   -0.8922 C   0  0  0  0  0  0  0  0  0  0  0  0
   -4.2450   -1.4362   -0.4223 C   0  0  0  0  0  0  0  0  0  0  0  0
   -6.5625   -2.8314    0.3344 C   0  0  0  0  0  0  0  0  0  0  0  0
   -5.6311    0.2873   -1.5593 C   0  0  0  0  0  0  0  0  0  0  0  0
   -4.1289   -2.6856    0.2134 C   0  0  0  0  0  0  0  0  0  0  0  0
   -3.0617   -0.7159   -0.5971 C   0  0  0  0  0  0  0  0  0  0  0  0
   -0.6148   -0.5500   -0.3449 C   0  0  0  0  0  0  0  0  0  0  0  0
   -1.8674   -1.2627   -0.1728 C   0  0  0  0  0  0  0  0  0  0  0  0
   -5.7798    1.4400   -0.6054 C   0  0  0  0  0  0  0  0  0  0  0  0
   -5.3057    2.7143   -0.9171 C   0  0  0  0  0  0  0  0  0  0  0  0
   -6.4102    1.2103    0.6174 C   0  0  0  0  0  0  0  0  0  0  0  0
   -6.5669    2.2549    1.5284 C   0  0  0  0  0  0  0  0  0  0  0  0
   -5.4622    3.7589   -0.0060 C   0  0  0  0  0  0  0  0  0  0  0  0
   -6.0927    3.5292    1.2167 C   0  0  0  0  0  0  0  0  0  0  0  0
    6.0004    1.5330   -0.5734 H   0  0  0  0  0  0  0  0  0  0  0  0
    6.8250   -1.4156   -0.5245 H   0  0  0  0  0  0  0  0  0  0  0  0
    6.4881   -0.4406   -1.9480 H   0  0  0  0  0  0  0  0  0  0  0  0
    6.0163    1.4804    1.8793 H   0  0  0  0  0  0  0  0  0  0  0  0
    6.5254   -0.2024    1.8935 H   0  0  0  0  0  0  0  0  0  0  0  0
    8.8937   -0.6465   -1.5057 H   0  0  0  0  0  0  0  0  0  0  0  0
    8.3171    1.0305   -1.4742 H   0  0  0  0  0  0  0  0  0  0  0  0
    8.0998    2.1751    0.8120 H   0  0  0  0  0  0  0  0  0  0  0  0
    8.4438    1.2161    2.2535 H   0  0  0  0  0  0  0  0  0  0  0  0
   10.5449    1.0120    1.3926 H   0  0  0  0  0  0  0  0  0  0  0  0
   10.4533    1.2650   -1.6795 H   0  0  0  0  0  0  0  0  0  0  0  0
   11.4914    2.0707   -0.5341 H   0  0  0  0  0  0  0  0  0  0  0  0
    9.8025    2.5170   -0.5793 H   0  0  0  0  0  0  0  0  0  0  0  0
   12.1799   -0.3561    0.2431 H   0  0  0  0  0  0  0  0  0  0  0  0
   10.9286   -1.3970    0.9279 H   0  0  0  0  0  0  0  0  0  0  0  0
   10.9628   -1.0696   -0.8138 H   0  0  0  0  0  0  0  0  0  0  0  0
    4.9914   -1.7874    0.9667 H   0  0  0  0  0  0  0  0  0  0  0  0
    3.7546    1.8470   -1.0092 H   0  0  0  0  0  0  0  0  0  0  0  0
    2.6611   -2.5331    1.0535 H   0  0  0  0  0  0  0  0  0  0  0  0
    1.4710    1.1354   -0.9338 H   0  0  0  0  0  0  0  0  0  0  0  0
   -6.4880   -2.5277   -1.8075 H   0  0  0  0  0  0  0  0  0  0  0  0
   -7.5556   -1.4185   -0.9407 H   0  0  0  0  0  0  0  0  0  0  0  0
   -6.7728   -2.2524    1.2416 H   0  0  0  0  0  0  0  0  0  0  0  0
   -7.3340   -3.6039    0.2514 H   0  0  0  0  0  0  0  0  0  0  0  0
    0.3967   -2.1141    0.5600 H   0  0  0  0  0  0  0  0  0  0  0  0
   -6.5440    0.2635   -2.1704 H   0  0  0  0  0  0  0  0  0  0  0  0
   -4.8169    0.4017   -2.2806 H   0  0  0  0  0  0  0  0  0  0  0  0
   -5.1595   -4.3376    0.9344 H   0  0  0  0  0  0  0  0  0  0  0  0
   -3.0637    0.2664   -1.0564 H   0  0  0  0  0  0  0  0  0  0  0  0
   -6.8116    0.2372    0.8820 H   0  0  0  0  0  0  0  0  0  0  0  0
   -5.0985    4.7576   -0.2339 H   0  0  0  0  0  0  0  0  0  0  0  0
   -6.2076    4.3525    1.9171 H   0  0  0  0  0  0  0  0  0  0  0  0
  1 33  1  0  0  0  0
  2 35  1  0  0  0  0
  3 30  2  0  0  0  0
  4 13  1  0  0  0  0
  4 14  1  0  0  0  0
  4 15  1  0  0  0  0
  5 24  1  0  0  0  0
  5 25  1  0  0  0  0
  5 27  1  0  0  0  0
  6 23  1  0  0  0  0
  6 30  1  0  0  0  0
  6 62  1  0  0  0  0
  7 26  1  0  0  0  0
  7 28  1  0  0  0  0
  7 65  1  0  0  0  0
  8  9  1  0  0  0  0
  8 28  2  0  0  0  0
  9 31  2  0  0  0  0
 10 11  1  0  0  0  0
 10 12  1  0  0  0  0
 10 16  1  0  0  0  0
 10 38  1  0  0  0  0
 11 13  1  0  0  0  0
 11 39  1  0  0  0  0
 11 40  1  0  0  0  0
 12 14  1  0  0  0  0
 12 41  1  0  0  0  0
 12 42  1  0  0  0  0
 13 43  1  0  0  0  0
 13 44  1  0  0  0  0
 14 45  1  0  0  0  0
 14 46  1  0  0  0  0
 15 17  1  0  0  0  0
 15 18  1  0  0  0  0
 15 47  1  0  0  0  0
 16 19  2  0  0  0  0
 16 20  1  0  0  0  0
 17 48  1  0  0  0  0
 17 49  1  0  0  0  0
 17 50  1  0  0  0  0
 18 51  1  0  0  0  0
 18 52  1  0  0  0  0
 18 53  1  0  0  0  0
 19 21  1  0  0  0  0
 19 54  1  0  0  0  0
 20 22  2  0  0  0  0
 20 55  1  0  0  0  0
 21 23  2  0  0  0  0
 21 56  1  0  0  0  0
 22 23  1  0  0  0  0
 22 57  1  0  0  0  0
 24 26  1  0  0  0  0
 24 58  1  0  0  0  0
 24 59  1  0  0  0  0
 25 28  1  0  0  0  0
 25 29  2  0  0  0  0
 26 60  1  0  0  0  0
 26 61  1  0  0  0  0
 27 32  1  0  0  0  0
 27 63  1  0  0  0  0
 27 64  1  0  0  0  0
 29 31  1  0  0  0  0
 29 66  1  0  0  0  0
 30 31  1  0  0  0  0
 32 33  2  0  0  0  0
 32 34  1  0  0  0  0
 33 36  1  0  0  0  0
 34 35  2  0  0  0  0
 34 67  1  0  0  0  0
 35 37  1  0  0  0  0
 36 37  2  0  0  0  0
 36 68  1  0  0  0  0
 37 69  1  0  0  0  0
M  END
> <PUBCHEM_COMPOUND_CID>
122582662

> <PUBCHEM_CONFORMER_RMSD>
1

> <PUBCHEM_CONFORMER_DIVERSEORDER>
1
130
65
47
139
54
134
7
75
55
117
116
22
94
100
115
59
23
101
53
77
97
99
92
9
82
147
34
95
107
39
14
152
137
52
114
144
154
109
62
3
42
102
123
142
96
13
79
155
18
138
72
24
56
90
67
10
120
16
36
145
131
86
46
136
112
21
156
105
106
119
76
141
93
71
35
157
40
151
2
81
150
58
51
69
15
49
122
44
84
110
19
78
74
146
104
113
133
20
73
91
80
60
126
140
85
17
103
26
118
27
48
143
64
127
38
87
135
121
11
153
41
30
108
88
124
33
148
149
25
45
43
61
29
31
83
129
89
111
50
66
4
28
5
125
12
6
70
37
63
57
128
132
98
32
8
68

> <PUBCHEM_MMFF94_PARTIAL_CHARGES>
43
1 -0.18
10 0.14
13 0.27
14 0.27
15 0.27
16 -0.14
19 -0.15
2 -0.18
20 -0.15
21 -0.15
22 -0.15
23 0.12
24 0.37
25 0.1
26 0.37
27 0.51
28 0.41
29 -0.15
3 -0.57
30 0.54
31 0.4
32 -0.14
33 0.18
34 -0.15
35 0.18
36 -0.15
37 -0.15
4 -0.81
5 -0.84
54 0.15
55 0.15
56 0.15
57 0.15
6 -0.55
62 0.37
65 0.4
66 0.15
67 0.15
68 0.15
69 0.15
7 -0.87
8 -0.31
9 -0.31

> <PUBCHEM_EFFECTIVE_ROTOR_COUNT>
9

> <PUBCHEM_PHARMACOPHORE_FEATURES>
13
1 3 acceptor
1 4 cation
1 5 cation
1 6 donor
1 7 donor
1 9 acceptor
3 15 17 18 hydrophobe
3 7 8 28 cation
6 16 19 20 21 22 23 rings
6 32 33 34 35 36 37 rings
6 4 10 11 12 13 14 rings
6 5 7 24 25 26 28 rings
6 8 9 25 28 29 31 rings

> <PUBCHEM_HEAVY_ATOM_COUNT>
37

> <PUBCHEM_ATOM_DEF_STEREO_COUNT>
0

> <PUBCHEM_ATOM_UDEF_STEREO_COUNT>
0

> <PUBCHEM_BOND_DEF_STEREO_COUNT>
0

> <PUBCHEM_BOND_UDEF_STEREO_COUNT>
0

> <PUBCHEM_ISOTOPIC_ATOM_COUNT>
0

> <PUBCHEM_COMPONENT_COUNT>
1

> <PUBCHEM_CACTVS_TAUTO_COUNT>
136

> <PUBCHEM_CONFORMER_ID>
074E768600000001

> <PUBCHEM_MMFF94_ENERGY>
113.7301

> <PUBCHEM_FEATURE_SELFOVERLAP>
66.006

> <PUBCHEM_SHAPE_FINGERPRINT>
100830 39 18334853914098416653
10580692 12 18410012139036708654
10670039 82 18408597081221079645
10930396 42 16588313723289142885
10951579 204 18266475234522606356
11061554 47 18339635733882743520
11181472 205 17488752168989351674
11578821 258 17988077907223749440
12082328 90 18413106164767820414
12089408 11 18186517723112401166
12104220 1 18413386514864428565
12133447 93 18410022018447700126
12539745 222 18341615962312370651
12664476 115 18131349726634865689
13885169 127 18409728482606839510
14118638 360 18335411370852495867
14294032 229 17822566119480200076
15021287 119 16805326591523650061
15065858 18 17988922285372554534
15183329 4 18186515505738327127
15289351 153 18340194263918347130
15328684 2 17822834417249346432
15510794 2 18272373075635396614
15604295 49 18200587120751256136
1577012 14 18410289181870829794
19304152 47 17313386661445086293
19309040 13 17415842397874627461
21095123 145 12107792900260050634
21792961 116 17918275351277356754
21927370 108 17896329181250411763
23522609 53 17604167977197293044
24771293 8 18259985977235588316
3711267 37 17749112193078009420
395649 100 18272089387895934072
4353968 344 18201431528474898687
44280117 145 18059291088767450135
44802255 64 17203322313156608135
504579 68 12247674972141373065
58083652 198 16370725971448859108
5937810 71 18343867705795719160
636775 72 18341610425429983121
6691757 9 16660646279750713490

> <PUBCHEM_SHAPE_MULTIPOLES>
729.43
35.57
3.84
1.58
90.95
0.3
0.41
14.5
5.01
-12.56
0.42
-3.22
1.38
-0.97

> <PUBCHEM_SHAPE_SELFOVERLAP>
1552.656

> <PUBCHEM_SHAPE_VOLUME>
406.7

> <PUBCHEM_COORDINATE_TYPE>
2
5
10

$$$$
