122582646
  -OEChem-07172214033D

 68 72  0     1  0  0  0  0  0999 V2000
   -4.2108    3.1181   -2.4223 Cl  0  0  0  0  0  0  0  0  0  0  0  0
   -7.2157    2.2177    2.9678 Cl  0  0  0  0  0  0  0  0  0  0  0  0
   -0.5157    0.3834   -0.8362 O   0  0  0  0  0  0  0  0  0  0  0  0
    5.9359   -0.0973    0.1237 N   0  0  0  0  0  0  0  0  0  0  0  0
    9.9609    1.1292   -0.3711 N   0  0  0  0  0  0  0  0  0  0  0  0
   -5.4771   -0.8152   -0.8775 N   0  0  1  0  0  0  0  0  0  0  0  0
   -5.4413   -3.3208    0.3962 N   0  0  0  0  0  0  0  0  0  0  0  0
    0.4980   -1.4588    0.2054 N   0  0  0  0  0  0  0  0  0  0  0  0
   -3.0964   -3.2061    0.5960 N   0  0  0  0  0  0  0  0  0  0  0  0
   -1.9072   -2.5686    0.4333 N   0  0  0  0  0  0  0  0  0  0  0  0
    8.7350    0.6125    0.2348 C   0  0  0  0  0  0  0  0  0  0  0  0
    7.6385    1.6813    0.2354 C   0  0  0  0  0  0  0  0  0  0  0  0
    8.2522   -0.6205   -0.5321 C   0  0  0  0  0  0  0  0  0  0  0  0
    6.3355    1.1347    0.8181 C   0  0  0  0  0  0  0  0  0  0  0  0
    6.9444   -1.1603    0.0486 C   0  0  0  0  0  0  0  0  0  0  0  0
    4.5779   -0.4373    0.1450 C   0  0  0  0  0  0  0  0  0  0  0  0
   11.0043    0.1042   -0.3689 C   0  0  0  0  0  0  0  0  0  0  0  0
   10.4177    2.3244    0.3377 C   0  0  0  0  0  0  0  0  0  0  0  0
    4.1698   -1.6463    0.7086 C   0  0  0  0  0  0  0  0  0  0  0  0
    3.6329    0.4328   -0.3987 C   0  0  0  0  0  0  0  0  0  0  0  0
    2.8168   -1.9849    0.7288 C   0  0  0  0  0  0  0  0  0  0  0  0
    2.2800    0.0943   -0.3787 C   0  0  0  0  0  0  0  0  0  0  0  0
    1.8720   -1.1146    0.1851 C   0  0  0  0  0  0  0  0  0  0  0  0
   -6.6320   -1.7077   -0.9687 C   0  0  0  0  0  0  0  0  0  0  0  0
   -4.2732   -1.3720   -0.4456 C   0  0  0  0  0  0  0  0  0  0  0  0
   -6.6937   -2.6143    0.2525 C   0  0  0  0  0  0  0  0  0  0  0  0
   -5.5174    0.4448   -1.6016 C   0  0  0  0  0  0  0  0  0  0  0  0
   -4.2538   -2.6291    0.1847 C   0  0  0  0  0  0  0  0  0  0  0  0
   -3.0415   -0.7306   -0.5905 C   0  0  0  0  0  0  0  0  0  0  0  0
   -5.6106    1.6003   -0.6440 C   0  0  0  0  0  0  0  0  0  0  0  0
   -1.8953   -1.3572   -0.1440 C   0  0  0  0  0  0  0  0  0  0  0  0
   -0.5951   -0.7280   -0.2848 C   0  0  0  0  0  0  0  0  0  0  0  0
   -5.0467    2.8418   -0.9377 C   0  0  0  0  0  0  0  0  0  0  0  0
   -6.2813    1.4071    0.5636 C   0  0  0  0  0  0  0  0  0  0  0  0
   -6.3886    2.4555    1.4774 C   0  0  0  0  0  0  0  0  0  0  0  0
   -5.1538    3.8903   -0.0238 C   0  0  0  0  0  0  0  0  0  0  0  0
   -5.8246    3.6970    1.1837 C   0  0  0  0  0  0  0  0  0  0  0  0
    8.9272    0.3177    1.2771 H   0  0  0  0  0  0  0  0  0  0  0  0
    7.9101    2.5512    0.8424 H   0  0  0  0  0  0  0  0  0  0  0  0
    7.4559    2.0372   -0.7874 H   0  0  0  0  0  0  0  0  0  0  0  0
    8.1002   -0.3713   -1.5910 H   0  0  0  0  0  0  0  0  0  0  0  0
    8.9711   -1.4451   -0.4897 H   0  0  0  0  0  0  0  0  0  0  0  0
    6.4611    0.9208    1.8872 H   0  0  0  0  0  0  0  0  0  0  0  0
    5.5723    1.9172    0.7364 H   0  0  0  0  0  0  0  0  0  0  0  0
    6.6026   -1.9776   -0.5989 H   0  0  0  0  0  0  0  0  0  0  0  0
    7.1267   -1.5736    1.0486 H   0  0  0  0  0  0  0  0  0  0  0  0
   11.9641    0.5337   -0.6818 H   0  0  0  0  0  0  0  0  0  0  0  0
   11.1517   -0.3448    0.6201 H   0  0  0  0  0  0  0  0  0  0  0  0
   10.8067   -0.6845   -1.1011 H   0  0  0  0  0  0  0  0  0  0  0  0
    9.7761    3.1884    0.1391 H   0  0  0  0  0  0  0  0  0  0  0  0
   10.4941    2.1683    1.4199 H   0  0  0  0  0  0  0  0  0  0  0  0
   11.4081    2.6290   -0.0227 H   0  0  0  0  0  0  0  0  0  0  0  0
    4.8762   -2.3406    1.1546 H   0  0  0  0  0  0  0  0  0  0  0  0
    3.9335    1.3723   -0.8558 H   0  0  0  0  0  0  0  0  0  0  0  0
    2.5115   -2.9284    1.1740 H   0  0  0  0  0  0  0  0  0  0  0  0
    1.6097    0.8170   -0.8216 H   0  0  0  0  0  0  0  0  0  0  0  0
   -6.5527   -2.3062   -1.8853 H   0  0  0  0  0  0  0  0  0  0  0  0
   -7.5633   -1.1329   -1.0348 H   0  0  0  0  0  0  0  0  0  0  0  0
   -7.5125   -3.3338    0.1483 H   0  0  0  0  0  0  0  0  0  0  0  0
   -6.8851   -2.0270    1.1586 H   0  0  0  0  0  0  0  0  0  0  0  0
   -6.4164    0.4842   -2.2323 H   0  0  0  0  0  0  0  0  0  0  0  0
   -4.6819    0.5085   -2.3045 H   0  0  0  0  0  0  0  0  0  0  0  0
   -5.4066   -4.2128    0.8733 H   0  0  0  0  0  0  0  0  0  0  0  0
   -2.9686    0.2517   -1.0436 H   0  0  0  0  0  0  0  0  0  0  0  0
    0.2911   -2.3598    0.6320 H   0  0  0  0  0  0  0  0  0  0  0  0
   -6.7516    0.4614    0.8135 H   0  0  0  0  0  0  0  0  0  0  0  0
   -4.7199    4.8638   -0.2378 H   0  0  0  0  0  0  0  0  0  0  0  0
   -5.9002    4.5229    1.8864 H   0  0  0  0  0  0  0  0  0  0  0  0
  1 33  1  0  0  0  0
  2 35  1  0  0  0  0
  3 32  2  0  0  0  0
  4 14  1  0  0  0  0
  4 15  1  0  0  0  0
  4 16  1  0  0  0  0
  5 11  1  0  0  0  0
  5 17  1  0  0  0  0
  5 18  1  0  0  0  0
  6 24  1  0  0  0  0
  6 25  1  0  0  0  0
  6 27  1  0  0  0  0
  7 26  1  0  0  0  0
  7 28  1  0  0  0  0
  7 63  1  0  0  0  0
  8 23  1  0  0  0  0
  8 32  1  0  0  0  0
  8 65  1  0  0  0  0
  9 10  1  0  0  0  0
  9 28  2  0  0  0  0
 10 31  2  0  0  0  0
 11 12  1  0  0  0  0
 11 13  1  0  0  0  0
 11 38  1  0  0  0  0
 12 14  1  0  0  0  0
 12 39  1  0  0  0  0
 12 40  1  0  0  0  0
 13 15  1  0  0  0  0
 13 41  1  0  0  0  0
 13 42  1  0  0  0  0
 14 43  1  0  0  0  0
 14 44  1  0  0  0  0
 15 45  1  0  0  0  0
 15 46  1  0  0  0  0
 16 19  2  0  0  0  0
 16 20  1  0  0  0  0
 17 47  1  0  0  0  0
 17 48  1  0  0  0  0
 17 49  1  0  0  0  0
 18 50  1  0  0  0  0
 18 51  1  0  0  0  0
 18 52  1  0  0  0  0
 19 21  1  0  0  0  0
 19 53  1  0  0  0  0
 20 22  2  0  0  0  0
 20 54  1  0  0  0  0
 21 23  2  0  0  0  0
 21 55  1  0  0  0  0
 22 23  1  0  0  0  0
 22 56  1  0  0  0  0
 24 26  1  0  0  0  0
 24 57  1  0  0  0  0
 24 58  1  0  0  0  0
 25 28  1  0  0  0  0
 25 29  2  0  0  0  0
 26 59  1  0  0  0  0
 26 60  1  0  0  0  0
 27 30  1  0  0  0  0
 27 61  1  0  0  0  0
 27 62  1  0  0  0  0
 29 31  1  0  0  0  0
 29 64  1  0  0  0  0
 30 33  2  0  0  0  0
 30 34  1  0  0  0  0
 31 32  1  0  0  0  0
 33 36  1  0  0  0  0
 34 35  2  0  0  0  0
 34 66  1  0  0  0  0
 35 37  1  0  0  0  0
 36 37  2  0  0  0  0
 36 67  1  0  0  0  0
 37 68  1  0  0  0  0
M  END
> <PUBCHEM_COMPOUND_CID>
122582646

> <PUBCHEM_CONFORMER_RMSD>
1

> <PUBCHEM_CONFORMER_DIVERSEORDER>
1
69
149
129
75
221
187
197
113
190
182
15
18
118
31
154
210
94
207
164
133
22
205
50
181
163
136
57
102
112
123
148
204
44
191
196
128
54
212
85
36
214
74
42
199
34
125
43
200
115
16
146
139
76
25
78
41
217
173
117
177
23
180
6
8
203
143
178
130
45
106
56
100
161
218
52
81
147
88
120
119
83
201
141
114
105
24
33
168
175
135
7
140
21
107
91
219
213
51
59
104
195
167
40
26
70
86
64
55
183
28
39
126
150
155
158
174
156
9
79
3
2
90
162
10
193
188
11
32
19
87
172
68
220
48
29
89
122
169
151
37
208
92
184
62
84
80
145
71
101
192
157
65
61
73
38
116
96
211
109
4
138
12
111
179
137
99
121
215
97
152
176
95
185
194
171
72
103
53
13
30
186
110
17
60
153
49
160
46
202
189
198
159
77
216
166
58
206
47
131
27
82
165
67
124
66
5
108
20
142
170
93
14
127
209
35
98
144
63
134
132

> <PUBCHEM_MMFF94_PARTIAL_CHARGES>
45
1 -0.18
10 -0.31
11 0.27
14 0.37
15 0.37
16 0.1
17 0.27
18 0.27
19 -0.15
2 -0.18
20 -0.15
21 -0.15
22 -0.15
23 0.12
24 0.37
25 0.1
26 0.37
27 0.51
28 0.41
29 -0.15
3 -0.57
30 -0.14
31 0.4
32 0.54
33 0.18
34 -0.15
35 0.18
36 -0.15
37 -0.15
4 -0.84
5 -0.81
53 0.15
54 0.15
55 0.15
56 0.15
6 -0.84
63 0.4
64 0.15
65 0.37
66 0.15
67 0.15
68 0.15
7 -0.87
8 -0.55
9 -0.31

> <PUBCHEM_EFFECTIVE_ROTOR_COUNT>
9

> <PUBCHEM_PHARMACOPHORE_FEATURES>
13
1 10 acceptor
1 3 acceptor
1 4 cation
1 5 cation
1 6 cation
1 7 donor
1 8 donor
3 7 9 28 cation
6 16 19 20 21 22 23 rings
6 30 33 34 35 36 37 rings
6 4 11 12 13 14 15 rings
6 6 7 24 25 26 28 rings
6 9 10 25 28 29 31 rings

> <PUBCHEM_HEAVY_ATOM_COUNT>
37

> <PUBCHEM_ATOM_DEF_STEREO_COUNT>
0

> <PUBCHEM_ATOM_UDEF_STEREO_COUNT>
0

> <PUBCHEM_BOND_DEF_STEREO_COUNT>
0

> <PUBCHEM_BOND_UDEF_STEREO_COUNT>
0

> <PUBCHEM_ISOTOPIC_ATOM_COUNT>
0

> <PUBCHEM_COMPONENT_COUNT>
1

> <PUBCHEM_CACTVS_TAUTO_COUNT>
14

> <PUBCHEM_CONFORMER_ID>
074E767600000001

> <PUBCHEM_MMFF94_ENERGY>
133.8251

> <PUBCHEM_FEATURE_SELFOVERLAP>
66.008

> <PUBCHEM_SHAPE_FINGERPRINT>
100830 39 18408038503228173077
10580692 12 18409730672797625654
10930396 42 16588596293450852469
11007060 377 18113051628302950451
11061554 47 18339635738225209552
11181472 205 17917438562941319978
11315181 36 18333447668965575623
11578821 258 18200874080596655520
12013929 29 18055070960865015144
12013929 94 18265334087429601482
12082328 90 18413668010941007358
12089408 11 18260264158431402690
12133447 93 18408895019102972302
12664476 115 18131912676556599595
12758862 11 18340763870380513715
13383665 225 18114196216287647644
13782708 43 11097868366817160759
13885169 127 18409165528363803606
14118638 360 18334003995884533619
14150022 121 18411703206022828267
14294032 229 17749664100554227820
14394314 77 18409450250061983536
15021287 119 16805327682424159797
15183329 4 18260259729249378399
15289351 153 18411408536932932376
15328684 2 17823115896615963456
15530121 191 18272365439189397360
15554971 5 18260821606189131814
15604295 49 18271238443801903032
1577012 14 18336542738220564298
1754908 1 12901549049071548844
18603816 31 13118292495153030585
19304152 47 17313667032493966901
19309040 13 17415839090712866789
20766409 102 18337958999038544668
21792961 116 17918277554648346506
21927370 108 17968669328307109915
24771293 8 18187365433286391636
3711267 37 17894917339163177260
4073 2 18186802478695962538
4169191 19 18336819818954822006
437795 83 18343295968829417855
4403749 210 17896595090612001797
44280117 145 18129377262641096551
44802255 64 17346874555495012135
504579 68 12103559767096501477
58083652 198 15936412281470707158
5937810 71 18342741801720444792
59521270 166 10879725269569940187
636775 72 18411417315065967408
6691757 9 16226048920273290914

> <PUBCHEM_SHAPE_MULTIPOLES>
724.45
34.38
4.26
1.45
88.16
1.29
0.29
18.47
3
-10.76
0.62
-3.94
1.36
-1.04

> <PUBCHEM_SHAPE_SELFOVERLAP>
1543.314

> <PUBCHEM_SHAPE_VOLUME>
404.6

> <PUBCHEM_COORDINATE_TYPE>
2
5
10

$$$$
